0
  DSViewer          3D                             0

 77 81  0  0  0  0  0  0  0  0999 V2000
   -2.9865  -23.1836   50.4846 O   0  0
   -2.4756  -24.1586   49.9754 C   0  0
   -2.4037  -24.2595   48.5960 N   0  0
   -1.9530  -25.2564   50.9106 C   0  0
   -3.1411  -23.4776   47.7275 C   0  0
   -0.6472  -24.8333   51.6043 C   0  0
   -1.7564  -26.6827   50.2635 C   0  0
   -3.1725  -25.3491   51.9080 C   0  0
   -2.5028  -22.6004   46.8172 C   0  0
   -4.5486  -23.5773   47.7429 C   0  0
    0.5331  -24.4486   50.8851 C   0  0
   -0.5795  -24.8238   53.0252 C   0  0
   -3.0541  -27.4105   49.8144 C   0  0
   -4.4269  -25.9633   51.2607 C   0  0
   -1.1727  -22.5202   46.8314 O   0  0
   -3.3048  -21.8375   45.9350 C   0  0
   -5.3263  -22.8165   46.8637 C   0  0
    1.6622  -23.9827   51.5984 C   0  0
    0.6619  -24.5113   49.3805 C   0  0
    0.5612  -24.3898   53.7103 C   0  0
   -4.0258  -27.3458   50.9283 N   0  0
   -0.4449  -21.6580   45.9510 C   0  0
   -4.7090  -21.9414   45.9546 C   0  0
    1.6785  -23.9530   52.9968 C   0  0
    1.7022  -25.5478   48.9080 C   0  0
    0.9451  -23.1264   48.7692 C   0  0
   -4.3632  -28.4084   51.7495 C   0  0
   -5.5475  -21.1317   45.0209 C   0  0
   -3.7042  -29.6484   51.6085 C   0  0
   -5.3111  -28.2527   52.7860 C   0  0
   -3.8047  -30.6145   52.6200 C   0  0
   -5.4050  -29.2158   53.8013 C   0  0
   -4.5677  -30.3426   53.7686 C   0  0
   -4.4405  -31.2229   54.9834 C   0  0
   -3.6162  -30.5415   56.0883 C   0  0
   -5.6090  -32.1196   55.3641 C   0  0
   -4.3377  -32.7320   54.8240 C   0  0
   -4.0074  -30.6082   57.2309 O   0  0
   -2.4848  -29.8748   55.8009 O   0  0
   -1.7380  -24.9856   48.1782 H   0  0
   -1.0997  -26.5837   49.3992 H   0  0
   -1.2337  -27.3192   50.9774 H   0  0
   -3.4143  -24.3495   52.2692 H   0  0
   -2.8842  -25.9557   52.7665 H   0  0
   -5.0343  -24.2535   48.4465 H   0  0
   -1.4421  -25.1648   53.5977 H   0  0
   -2.8302  -28.4520   49.5837 H   0  0
   -3.4683  -26.9133   48.9373 H   0  0
   -5.2502  -25.9725   51.9750 H   0  0
   -4.6853  -25.4187   50.3526 H   0  0
   -2.8275  -21.1582   45.2287 H   0  0
   -6.4127  -22.9028   46.8840 H   0  0
    2.5377  -23.6397   51.0470 H   0  0
   -0.3076  -24.8485   49.0139 H   0  0
    0.5770  -24.3929   54.8002 H   0  0
   -0.8661  -20.6705   46.1394 H   0  0
   -0.7760  -21.9550   44.9559 H   0  0
    0.6386  -21.6882   46.0663 H   0  0
    2.5594  -23.5905   53.5267 H   0  0
    1.4023  -26.5235   49.2902 H   0  0
    2.6642  -25.2826   49.3466 H   0  0
    1.7695  -25.5668   47.8202 H   0  0
    1.8704  -22.7427   49.1989 H   0  0
    0.1275  -22.4574   49.0378 H   0  0
    1.0338  -23.1969   47.6851 H   0  0
   -5.1780  -21.3855   44.0274 H   0  0
   -5.2566  -20.0991   45.2136 H   0  0
   -6.6203  -21.2936   45.1253 H   0  0
   -3.1172  -29.8551   50.7136 H   0  0
   -5.9694  -27.3840   52.7964 H   0  0
   -3.2936  -31.5716   52.5159 H   0  0
   -6.1238  -29.0903   54.6111 H   0  0
   -6.3952  -32.0944   54.6095 H   0  0
   -5.6854  -32.2391   56.4448 H   0  0
   -3.7380  -33.1783   55.6172 H   0  0
   -4.4471  -33.0321   53.7819 H   0  0
   -2.7807  -29.1670   55.0840 H   0  0
  1  2  2  0  0  0
  2  3  1  0  0  0
  2  4  1  0  0  0
  3  5  1  0  0  0
  4  6  1  0  0  0
  4  7  1  0  0  0
  4  8  1  0  0  0
  5  9  2  0  0  0
  5 10  1  0  0  0
  6 11  2  0  0  0
  6 12  1  0  0  0
  7 13  1  0  0  0
  8 14  1  0  0  0
  9 15  1  0  0  0
  9 16  1  0  0  0
 10 17  2  0  0  0
 11 18  1  0  0  0
 11 19  1  0  0  0
 12 20  2  0  0  0
 13 21  1  0  0  0
 14 21  1  0  0  0
 15 22  1  0  0  0
 16 23  2  0  0  0
 17 23  1  0  0  0
 18 24  2  0  0  0
 19 25  1  0  0  0
 19 26  1  0  0  0
 20 24  1  0  0  0
 21 27  1  0  0  0
 23 28  1  0  0  0
 27 29  2  0  0  0
 27 30  1  0  0  0
 29 31  1  0  0  0
 30 32  2  0  0  0
 31 33  2  0  0  0
 32 33  1  0  0  0
 33 34  1  0  0  0
 34 35  1  0  0  0
 34 36  1  0  0  0
 34 37  1  0  0  0
 35 38  2  0  0  0
 35 39  1  0  0  0
 36 37  1  0  0  0
  3 40  1  0  0  0
  7 41  1  0  0  0
  7 42  1  0  0  0
  8 43  1  0  0  0
  8 44  1  0  0  0
 10 45  1  0  0  0
 12 46  1  0  0  0
 13 47  1  0  0  0
 13 48  1  0  0  0
 14 49  1  0  0  0
 14 50  1  0  0  0
 16 51  1  0  0  0
 17 52  1  0  0  0
 18 53  1  0  0  0
 19 54  1  0  0  0
 20 55  1  0  0  0
 22 56  1  0  0  0
 22 57  1  0  0  0
 22 58  1  0  0  0
 24 59  1  0  0  0
 25 60  1  0  0  0
 25 61  1  0  0  0
 25 62  1  0  0  0
 26 63  1  0  0  0
 26 64  1  0  0  0
 26 65  1  0  0  0
 28 66  1  0  0  0
 28 67  1  0  0  0
 28 68  1  0  0  0
 29 69  1  0  0  0
 30 70  1  0  0  0
 31 71  1  0  0  0
 32 72  1  0  0  0
 36 73  1  0  0  0
 36 74  1  0  0  0
 37 75  1  0  0  0
 37 76  1  0  0  0
 39 77  1  0  0  0
M  END
> <AbsoluteEnergy>
82.7234

> <Clean Energy>
115.286

> <Column 1>
0

> <ConfNumber>
82

> <Filter_Pass>
Ref

> <IC50_nM>
33.4

> <LogP>
6.42

> <MOL_NUMBER>
1

> <QSAR_Score_pIC50>
7.476

> <RelativeEnergy>
18.8353

> <SMILES>
COC1=C(NC(C2(C3=C(C(C)C)C=CC=C3)CCN(C4=CC=C(C5(C(O)=O)CC5)C=C4)CC2)=O)C=CC(C)=C1

> <Toxicity_Alerts>
DILI, Basic N (hERG Warning)

> <Type>
Reference

> <POSE_NUMBER>
1

> <LibDockScore>
136.451

> <HotSpots>
1.67,-24.32,50.98,A,50,18
-4.33,-32.92,55.19,A,75,37
-4.13,-30.52,57.38,P,71,38

$$$$
0
  DSViewer          3D                             0

 77 81  0  0  0  0  0  0  0  0999 V2000
   -1.5696  -23.8689   51.2984 O   0  0
   -1.6748  -24.8460   50.5878 C   0  0
   -0.6708  -25.1523   49.6815 N   0  0
   -2.9415  -25.7047   50.7355 C   0  0
    0.6175  -24.6418   49.7327 C   0  0
   -4.1698  -24.9036   50.2715 C   0  0
   -2.9227  -26.0436   52.2796 C   0  0
   -2.9416  -27.0769   49.9895 C   0  0
    1.4233  -24.6320   48.5655 C   0  0
    1.1357  -24.1350   50.9442 C   0  0
   -4.2589  -24.2885   48.9755 C   0  0
   -5.2805  -24.7585   51.1444 C   0  0
   -3.3242  -27.4831   52.6670 C   0  0
   -4.1600  -27.9673   50.3443 C   0  0
    0.9055  -25.0891   47.4251 O   0  0
    2.7405  -24.1193   48.6479 C   0  0
    2.4405  -23.6264   51.0072 C   0  0
   -5.3688  -23.4686   48.6700 C   0  0
   -3.2287  -24.4601   47.8799 C   0  0
   -6.3872  -23.9700   50.8050 C   0  0
   -4.4194  -28.0244   51.8154 N   0  0
    1.6551  -25.1482   46.2068 C   0  0
    3.2505  -23.6195   49.8595 C   0  0
   -6.4247  -23.3103   49.5751 C   0  0
   -2.4798  -23.1478   47.5738 C   0  0
   -3.8180  -25.0671   46.5908 C   0  0
   -5.5999  -28.5578   52.3411 C   0  0
    4.6450  -23.0846   49.9141 C   0  0
   -6.3135  -29.5576   51.6370 C   0  0
   -6.1180  -28.1248   53.5864 C   0  0
   -7.4812  -30.1263   52.1743 C   0  0
   -7.2833  -28.6948   54.1225 C   0  0
   -7.9674  -29.7037   53.4233 C   0  0
   -9.2137  -30.3276   54.0185 C   0  0
   -8.9871  -30.9895   55.3876 C   0  0
  -10.2406  -30.9183   53.0610 C   0  0
  -10.5422  -29.6256   53.7816 C   0  0
   -7.8571  -31.1258   55.8008 O   0  0
  -10.0249  -31.4051   56.1222 O   0  0
   -0.9066  -25.8297   48.8875 H   0  0
   -1.9212  -25.8508   52.6641 H   0  0
   -3.5879  -25.3509   52.7951 H   0  0
   -2.9384  -26.8953   48.9147 H   0  0
   -2.0271  -27.6156   50.2376 H   0  0
    0.5147  -24.1392   51.8400 H   0  0
   -5.2715  -25.2747   52.1044 H   0  0
   -3.6471  -27.4952   53.7080 H   0  0
   -2.4528  -28.1317   52.5770 H   0  0
   -5.0452  -27.5754   49.8434 H   0  0
   -3.9827  -28.9780   49.9766 H   0  0
    3.3695  -24.1118   47.7578 H   0  0
    2.8272  -23.2356   51.9484 H   0  0
   -5.4032  -22.9500   47.7119 H   0  0
   -2.5051  -25.1761   48.2696 H   0  0
   -7.2198  -23.8713   51.5016 H   0  0
    2.5329  -25.7405   46.4653 H   0  0
    2.0006  -24.1250   46.0595 H   0  0
    1.1120  -25.5429   45.3481 H   0  0
   -7.2728  -22.6746   49.3208 H   0  0
   -1.9888  -22.8126   48.4874 H   0  0
   -3.2115  -22.3982   47.2727 H   0  0
   -1.7452  -23.2988   46.7828 H   0  0
   -4.6152  -24.4100   46.2433 H   0  0
   -4.2496  -26.0360   46.8418 H   0  0
   -3.0511  -25.1768   45.8241 H   0  0
    4.6788  -22.3029   49.1552 H   0  0
    5.2759  -23.9012   49.5631 H   0  0
    4.9413  -22.7226   50.8986 H   0  0
   -5.9521  -29.8911   50.6642 H   0  0
   -5.6038  -27.3369   54.1368 H   0  0
   -8.0126  -30.8993   51.6192 H   0  0
   -7.6597  -28.3529   55.0866 H   0  0
  -10.7669  -31.7610   53.5094 H   0  0
   -9.9633  -30.7442   52.0213 H   0  0
  -10.4276  -28.7631   53.1251 H   0  0
  -11.2295  -29.7797   54.6135 H   0  0
  -10.5471  -32.0592   55.4882 H   0  0
  1  2  2  0  0  0
  2  3  1  0  0  0
  2  4  1  0  0  0
  3  5  1  0  0  0
  4  6  1  0  0  0
  4  7  1  0  0  0
  4  8  1  0  0  0
  5  9  2  0  0  0
  5 10  1  0  0  0
  6 11  2  0  0  0
  6 12  1  0  0  0
  7 13  1  0  0  0
  8 14  1  0  0  0
  9 15  1  0  0  0
  9 16  1  0  0  0
 10 17  2  0  0  0
 11 18  1  0  0  0
 11 19  1  0  0  0
 12 20  2  0  0  0
 13 21  1  0  0  0
 14 21  1  0  0  0
 15 22  1  0  0  0
 16 23  2  0  0  0
 17 23  1  0  0  0
 18 24  2  0  0  0
 19 25  1  0  0  0
 19 26  1  0  0  0
 20 24  1  0  0  0
 21 27  1  0  0  0
 23 28  1  0  0  0
 27 29  2  0  0  0
 27 30  1  0  0  0
 29 31  1  0  0  0
 30 32  2  0  0  0
 31 33  2  0  0  0
 32 33  1  0  0  0
 33 34  1  0  0  0
 34 35  1  0  0  0
 34 36  1  0  0  0
 34 37  1  0  0  0
 35 38  2  0  0  0
 35 39  1  0  0  0
 36 37  1  0  0  0
  3 40  1  0  0  0
  7 41  1  0  0  0
  7 42  1  0  0  0
  8 43  1  0  0  0
  8 44  1  0  0  0
 10 45  1  0  0  0
 12 46  1  0  0  0
 13 47  1  0  0  0
 13 48  1  0  0  0
 14 49  1  0  0  0
 14 50  1  0  0  0
 16 51  1  0  0  0
 17 52  1  0  0  0
 18 53  1  0  0  0
 19 54  1  0  0  0
 20 55  1  0  0  0
 22 56  1  0  0  0
 22 57  1  0  0  0
 22 58  1  0  0  0
 24 59  1  0  0  0
 25 60  1  0  0  0
 25 61  1  0  0  0
 25 62  1  0  0  0
 26 63  1  0  0  0
 26 64  1  0  0  0
 26 65  1  0  0  0
 28 66  1  0  0  0
 28 67  1  0  0  0
 28 68  1  0  0  0
 29 69  1  0  0  0
 30 70  1  0  0  0
 31 71  1  0  0  0
 32 72  1  0  0  0
 36 73  1  0  0  0
 36 74  1  0  0  0
 37 75  1  0  0  0
 37 76  1  0  0  0
 39 77  1  0  0  0
M  END
> <AbsoluteEnergy>
74.111

> <Clean Energy>
115.286

> <Column 1>
0

> <ConfNumber>
36

> <Filter_Pass>
Ref

> <IC50_nM>
33.4

> <LogP>
6.42

> <MOL_NUMBER>
1

> <QSAR_Score_pIC50>
7.476

> <RelativeEnergy>
10.223

> <SMILES>
COC1=C(NC(C2(C3=C(C(C)C)C=CC=C3)CCN(C4=CC=C(C5(C(O)=O)CC5)C=C4)CC2)=O)C=CC(C)=C1

> <Toxicity_Alerts>
DILI, Basic N (hERG Warning)

> <Type>
Reference

> <POSE_NUMBER>
2

> <LibDockScore>
128.409

> <HotSpots>
-5.33,-24.12,49.78,A,36,20
-0.93,-23.32,46.98,A,25,25
-9.53,-30.12,52.78,A,62,36

$$$$
0
  SciTegic05082609073D

 77 81  0  0  0  0            999 V2000
   -3.6078  -26.3038   49.8870 O   0  0  0  1  0  0
   -3.5747  -26.1730   51.0917 C   0  0  0  1  0  0
   -2.4211  -25.6771   51.6897 N   0  0  0  1  0  0
   -4.8355  -26.5206   51.9362 C   0  0  0  1  0  0
   -1.2353  -25.3347   51.0452 C   0  0  0  1  0  0
   -4.8646  -28.0000   52.3507 C   0  0  0  1  0  0
   -6.0971  -26.1687   51.0453 C   0  0  0  1  0  0
   -4.8452  -25.5290   53.1706 C   0  0  0  1  0  0
   -0.2264  -24.6470   51.7736 C   0  0  0  1  0  0
   -1.0128  -25.6473   49.6841 C   0  0  0  1  0  0
   -6.0528  -28.6923   52.7659 C   0  0  0  1  0  0
   -3.6518  -28.7437   52.3189 C   0  0  0  1  0  0
   -6.5271  -24.6807   51.1585 C   0  0  0  1  0  0
   -4.7703  -24.0265   52.7597 C   0  0  0  1  0  0
   -0.4447  -24.3591   53.0571 O   0  0  0  1  0  0
    0.9698  -24.2778   51.1143 C   0  0  0  1  0  0
    0.1789  -25.2703   49.0490 C   0  0  0  1  0  0
   -5.9604  -30.0462   53.1642 C   0  0  0  1  0  0
   -7.4378  -28.0819   52.8125 C   0  0  0  1  0  0
   -3.5918  -30.0874   52.7026 C   0  0  0  1  0  0
   -5.3018  -23.8623   51.3705 N   0  0  0  1  0  0
    0.4784  -23.6027   53.8477 C   0  0  0  1  0  0
    1.1751  -24.5821   49.7581 C   0  0  0  1  0  0
   -4.7472  -30.7397   53.1329 C   0  0  0  1  0  0
   -8.4010  -28.7310   51.7957 C   0  0  0  1  0  0
   -8.0237  -28.1154   54.2353 C   0  0  0  1  0  0
   -4.6118  -23.2161   50.3395 C   0  0  0  1  0  0
    2.4376  -24.1783   49.0692 C   0  0  0  1  0  0
   -5.0781  -23.2898   49.0037 C   0  0  0  1  0  0
   -3.3971  -22.5277   50.5790 C   0  0  0  1  0  0
   -4.2721  -22.8691   47.9376 C   0  0  0  1  0  0
   -2.5834  -22.1192   49.5111 C   0  0  0  1  0  0
   -2.9904  -22.3576   48.1886 C   0  0  0  1  0  0
   -2.0476  -22.1076   47.0386 C   0  0  0  1  0  0
   -1.0492  -23.2539   46.8771 C   0  0  0  1  0  0
   -1.6174  -20.6848   46.7206 C   0  0  0  1  0  0
   -2.5552  -21.4129   45.7856 C   0  0  0  1  0  0
   -1.4593  -24.3888   46.7601 O   0  0  0  1  0  0
    0.2559  -22.9881   46.8803 O   0  0  0  1  0  0
   -2.4475  -25.5455   52.7513 H   0  0
   -6.9323  -26.8013   51.3460 H   0  0
   -5.8686  -26.3920   50.0032 H   0  0
   -3.9988  -25.7597   53.8174 H   0  0
   -5.7556  -25.6915   53.7476 H   0  0
   -1.7757  -26.1869   49.1229 H   0  0
   -2.7394  -28.2499   51.9845 H   0  0
   -7.0203  -24.3705   50.2373 H   0  0
   -7.2018  -24.5564   52.0055 H   0  0
   -3.7339  -23.6907   52.7935 H   0  0
   -5.3680  -23.4308   53.4496 H   0  0
    1.7452  -23.7483   51.6679 H   0  0
    0.3325  -25.5134   47.9976 H   0  0
   -6.8583  -30.5621   53.5043 H   0  0
   -7.3266  -27.0372   52.5221 H   0  0
   -2.6437  -30.6239   52.6654 H   0  0
    0.6059  -22.6757   53.2886 H   0  0
    1.4149  -24.1531   53.7576 H   0  0
    0.1770  -23.4393   54.8824 H   0  0
   -4.7043  -31.7838   53.4428 H   0  0
   -8.4637  -29.7963   52.0177 H   0  0
   -7.9796  -28.6048   50.7984 H   0  0
   -9.3885  -28.2728   51.8514 H   0  0
   -7.3587  -27.5615   54.8980 H   0  0
   -8.0710  -29.1526   54.5672 H   0  0
   -9.0194  -27.6721   54.2474 H   0  0
    3.2333  -24.6239   49.6661 H   0  0
    2.4984  -23.0995   49.2128 H   0  0
    2.4875  -24.4665   48.0192 H   0  0
   -6.0764  -23.6787   48.8028 H   0  0
   -3.0914  -22.3131   51.6030 H   0  0
   -4.6407  -22.9392   46.9142 H   0  0
   -1.6361  -21.6172   49.7082 H   0  0
   -0.6018  -20.6522   46.3260 H   0  0
   -2.1479  -19.9594   47.3375 H   0  0
   -3.5843  -21.0741   45.9046 H   0  0
   -2.0383  -21.7682   44.8942 H   0  0
    0.4277  -22.4874   47.7871 H   0  0
  1  2  2  0
  2  3  1  0
  2  4  1  0
  3  5  1  0
  4  6  1  0
  4  7  1  0
  4  8  1  0
  5  9  2  0
  5 10  1  0
  6 11  2  0
  6 12  1  0
  7 13  1  0
  8 14  1  0
  9 15  1  0
  9 16  1  0
 10 17  2  0
 11 18  1  0
 11 19  1  0
 12 20  2  0
 13 21  1  0
 14 21  1  0
 15 22  1  0
 16 23  2  0
 17 23  1  0
 18 24  2  0
 19 25  1  0
 19 26  1  0
 20 24  1  0
 21 27  1  0
 23 28  1  0
 27 29  2  0
 27 30  1  0
 29 31  1  0
 30 32  2  0
 31 33  2  0
 32 33  1  0
 33 34  1  0
 34 35  1  0
 34 36  1  0
 34 37  1  0
 35 38  2  0
 35 39  1  0
 36 37  1  0
  3 40  1  0
  7 41  1  0
  7 42  1  0
  8 43  1  0
  8 44  1  0
 10 45  1  0
 12 46  1  0
 13 47  1  0
 13 48  1  0
 14 49  1  0
 14 50  1  0
 16 51  1  0
 17 52  1  0
 18 53  1  0
 19 54  1  0
 20 55  1  0
 22 56  1  0
 22 57  1  0
 22 58  1  0
 24 59  1  0
 25 60  1  0
 25 61  1  0
 25 62  1  0
 26 63  1  0
 26 64  1  0
 26 65  1  0
 28 66  1  0
 28 67  1  0
 28 68  1  0
 29 69  1  0
 30 70  1  0
 31 71  1  0
 32 72  1  0
 36 73  1  0
 36 74  1  0
 37 75  1  0
 37 76  1  0
 39 77  1  0
M  END
> <Name>
0

> <AbsoluteEnergy>
78.2096

> <Clean Energy>
115.286

> <Column 1>
0

> <ConfNumber>
57

> <Filter_Pass>
Ref

> <IC50_nM>
33.4

> <LogP>
6.42

> <MOL_NUMBER>
1

> <QSAR_Score_pIC50>
7.476

> <RelativeEnergy>
14.3215

> <SMILES>
COC1=C(NC(C2(C3=C(C(C)C)C=CC=C3)CCN(C4=CC=C(C5(C(O)=O)CC5)C=C4)CC2)=O)C=CC(C)=C1

> <Toxicity_Alerts>
DILI, Basic N (hERG Warning)

> <Type>
Reference

> <POSE_NUMBER>
3

> <LibDockScore>
127.2661

> <HotSpots>
-6.53,-30.72,51.78,A,56,24
-5.53,-22.92,48.98,A,33,29
-2.53,-21.12,45.98,A,16,37

$$$$
0
  SciTegic05082609073D

 77 81  0  0  0  0            999 V2000
   -1.8515  -24.2908   51.6508 O   0  0  0  1  0  0
   -1.9953  -25.2306   50.8979 C   0  0  0  1  0  0
   -1.0294  -25.5031   49.9409 N   0  0  0  1  0  0
   -3.2666  -26.0816   51.0510 C   0  0  0  1  0  0
    0.2326  -24.9290   49.9114 C   0  0  0  1  0  0
   -4.4940  -25.2671   50.6084 C   0  0  0  1  0  0
   -3.2334  -26.4359   52.5914 C   0  0  0  1  0  0
   -3.2848  -27.4462   50.2916 C   0  0  0  1  0  0
    1.0054  -24.9758   48.7229 C   0  0  0  1  0  0
    0.7569  -24.3009   51.0618 C   0  0  0  1  0  0
   -4.4983  -24.4317   49.4387 C   0  0  0  1  0  0
   -5.6898  -25.3342   51.3713 C   0  0  0  1  0  0
   -3.6412  -27.8763   52.9690 C   0  0  0  1  0  0
   -4.5058  -28.3313   50.6509 C   0  0  0  1  0  0
    0.4809  -25.5486   47.6392 O   0  0  0  1  0  0
    2.2969  -24.3955   48.7235 C   0  0  0  1  0  0
    2.0357  -23.7269   51.0438 C   0  0  0  1  0  0
   -5.6245  -23.6220   49.1671 C   0  0  0  1  0  0
   -3.3595  -24.3540   48.4447 C   0  0  0  1  0  0
   -6.8074  -24.5490   51.0612 C   0  0  0  1  0  0
   -4.7496  -28.4011   52.1242 N   0  0  0  1  0  0
    1.1777  -25.6197   46.3907 C   0  0  0  1  0  0
    2.8133  -23.7748   49.8749 C   0  0  0  1  0  0
   -6.7698  -23.6795   49.9696 C   0  0  0  1  0  0
   -2.7637  -22.9351   48.3513 C   0  0  0  1  0  0
   -3.7451  -24.8785   47.0470 C   0  0  0  1  0  0
   -5.9282  -28.9312   52.6574 C   0  0  0  1  0  0
    4.1801  -23.1710   49.8436 C   0  0  0  1  0  0
   -6.7808  -29.7335   51.8612 C   0  0  0  1  0  0
   -6.3067  -28.6907   54.0012 C   0  0  0  1  0  0
   -7.9489  -30.3012   52.3987 C   0  0  0  1  0  0
   -7.4727  -29.2596   54.5369 C   0  0  0  1  0  0
   -8.2965  -30.0739   53.7413 C   0  0  0  1  0  0
   -9.5431  -30.7003   54.3333 C   0  0  0  1  0  0
   -9.2792  -31.5492   55.5878 C   0  0  0  1  0  0
  -10.6603  -31.1008   53.3786 C   0  0  0  1  0  0
  -10.8354  -29.8999   54.2779 C   0  0  0  1  0  0
   -8.2007  -31.4806   56.1342 O   0  0  0  1  0  0
  -10.2307  -32.3508   56.0792 O   0  0  0  1  0  0
   -1.2750  -26.2052   49.1717 H   0  0
   -2.2263  -26.2541   52.9667 H   0  0
   -3.8879  -25.7435   53.1209 H   0  0
   -3.2919  -27.2539   49.2187 H   0  0
   -2.3716  -27.9939   50.5244 H   0  0
    0.1611  -24.2618   51.9737 H   0  0
   -5.7393  -26.0151   52.2211 H   0  0
   -3.9527  -27.8964   54.0133 H   0  0
   -2.7756  -28.5302   52.8630 H   0  0
   -5.3935  -27.9281   50.1636 H   0  0
   -4.3399  -29.3395   50.2713 H   0  0
    2.9007  -24.4304   47.8167 H   0  0
    2.4273  -23.2426   51.9383 H   0  0
   -5.6007  -22.9402   48.3170 H   0  0
   -2.5870  -25.0172   48.8339 H   0  0
   -7.7072  -24.6169   51.6726 H   0  0
    2.1161  -26.1150   46.6399 H   0  0
    1.4222  -24.5817   46.1653 H   0  0
    0.6349  -26.1146   45.5854 H   0  0
   -7.6289  -23.0480   49.7432 H   0  0
   -2.4055  -22.6483   49.3400 H   0  0
   -3.5567  -22.2497   48.0522 H   0  0
   -1.9470  -22.9068   47.6300 H   0  0
   -4.5865  -24.2871   46.6860 H   0  0
   -4.0675  -25.9143   47.1534 H   0  0
   -2.9040  -24.8084   46.3572 H   0  0
    4.1543  -22.4531   49.0239 H   0  0
    4.8417  -23.9823   49.5400 H   0  0
    4.4840  -22.7162   50.7864 H   0  0
   -6.5277  -29.9135   50.8164 H   0  0
   -5.6829  -28.0541   54.6287 H   0  0
   -8.5887  -30.9212   51.7707 H   0  0
   -7.7407  -29.0687   55.5760 H   0  0
  -11.2122  -31.9646   53.7491 H   0  0
  -10.4342  -30.8065   52.3537 H   0  0
  -10.7046  -28.9659   53.7315 H   0  0
  -11.4809  -30.1240   55.1271 H   0  0
  -10.4902  -32.9712   55.2728 H   0  0
  1  2  2  0
  2  3  1  0
  2  4  1  0
  3  5  1  0
  4  6  1  0
  4  7  1  0
  4  8  1  0
  5  9  2  0
  5 10  1  0
  6 11  2  0
  6 12  1  0
  7 13  1  0
  8 14  1  0
  9 15  1  0
  9 16  1  0
 10 17  2  0
 11 18  1  0
 11 19  1  0
 12 20  2  0
 13 21  1  0
 14 21  1  0
 15 22  1  0
 16 23  2  0
 17 23  1  0
 18 24  2  0
 19 25  1  0
 19 26  1  0
 20 24  1  0
 21 27  1  0
 23 28  1  0
 27 29  2  0
 27 30  1  0
 29 31  1  0
 30 32  2  0
 31 33  2  0
 32 33  1  0
 33 34  1  0
 34 35  1  0
 34 36  1  0
 34 37  1  0
 35 38  2  0
 35 39  1  0
 36 37  1  0
  3 40  1  0
  7 41  1  0
  7 42  1  0
  8 43  1  0
  8 44  1  0
 10 45  1  0
 12 46  1  0
 13 47  1  0
 13 48  1  0
 14 49  1  0
 14 50  1  0
 16 51  1  0
 17 52  1  0
 18 53  1  0
 19 54  1  0
 20 55  1  0
 22 56  1  0
 22 57  1  0
 22 58  1  0
 24 59  1  0
 25 60  1  0
 25 61  1  0
 25 62  1  0
 26 63  1  0
 26 64  1  0
 26 65  1  0
 28 66  1  0
 28 67  1  0
 28 68  1  0
 29 69  1  0
 30 70  1  0
 31 71  1  0
 32 72  1  0
 36 73  1  0
 36 74  1  0
 37 75  1  0
 37 76  1  0
 39 77  1  0
M  END
> <Name>
0

> <AbsoluteEnergy>
74.111

> <Clean Energy>
115.286

> <Column 1>
0

> <ConfNumber>
36

> <Filter_Pass>
Ref

> <IC50_nM>
33.4

> <LogP>
6.42

> <MOL_NUMBER>
1

> <QSAR_Score_pIC50>
7.476

> <RelativeEnergy>
10.223

> <SMILES>
COC1=C(NC(C2(C3=C(C(C)C)C=CC=C3)CCN(C4=CC=C(C5(C(O)=O)CC5)C=C4)CC2)=O)C=CC(C)=C1

> <Toxicity_Alerts>
DILI, Basic N (hERG Warning)

> <Type>
Reference

> <POSE_NUMBER>
4

> <LibDockScore>
126.294

> <HotSpots>
0.87,-24.32,52.78,A,63,10
-5.33,-24.12,49.78,A,36,18
-10.93,-30.92,53.98,A,68,36

$$$$
0
  SciTegic05082609073D

 77 81  0  0  0  0            999 V2000
   -2.6749  -25.9018   53.2233 O   0  0  0  1  0  0
   -2.4637  -26.0894   52.0458 C   0  0  0  1  0  0
   -2.5976  -27.3624   51.5136 N   0  0  0  1  0  0
   -2.0903  -24.8838   51.1630 C   0  0  0  1  0  0
   -2.9907  -28.4780   52.2386 C   0  0  0  1  0  0
   -0.6181  -24.5545   51.4652 C   0  0  0  1  0  0
   -2.9867  -23.6472   51.5692 C   0  0  0  1  0  0
   -2.5531  -25.1867   49.6892 C   0  0  0  1  0  0
   -2.4831  -28.7779   53.5314 C   0  0  0  1  0  0
   -3.9514  -29.3277   51.6545 C   0  0  0  1  0  0
    0.4846  -24.4191   50.5501 C   0  0  0  1  0  0
   -0.3460  -24.3845   52.8487 C   0  0  0  1  0  0
   -4.4516  -23.6982   51.0511 C   0  0  0  1  0  0
   -4.0350  -25.6529   49.5784 C   0  0  0  1  0  0
   -1.5190  -28.0116   54.0392 O   0  0  0  1  0  0
   -3.0169  -29.8829   54.2350 C   0  0  0  1  0  0
   -4.4497  -30.4327   52.3570 C   0  0  0  1  0  0
    1.7815  -24.1948   51.0781 C   0  0  0  1  0  0
    0.3882  -24.5061   49.0431 C   0  0  0  1  0  0
    0.9366  -24.1356   53.3381 C   0  0  0  1  0  0
   -4.8180  -25.0997   50.7193 N   0  0  0  1  0  0
   -0.8256  -28.3300   55.2471 C   0  0  0  1  0  0
   -3.9942  -30.7075   53.6569 C   0  0  0  1  0  0
    2.0073  -24.0524   52.4506 C   0  0  0  1  0  0
    1.2132  -25.6867   48.4994 C   0  0  0  1  0  0
    0.7623  -23.1996   48.3068 C   0  0  0  1  0  0
   -5.6584  -25.8888   51.4996 C   0  0  0  1  0  0
   -4.5425  -31.8648   54.4263 C   0  0  0  1  0  0
   -7.0332  -26.0340   51.2008 C   0  0  0  1  0  0
   -5.1267  -26.6136   52.5886 C   0  0  0  1  0  0
   -7.8254  -26.9560   51.9109 C   0  0  0  1  0  0
   -5.9061  -27.5458   53.2796 C   0  0  0  1  0  0
   -7.2526  -27.7413   52.9315 C   0  0  0  1  0  0
   -8.0473  -28.8023   53.6582 C   0  0  0  1  0  0
   -8.1850  -28.5342   55.1492 C   0  0  0  1  0  0
   -7.7715  -30.2473   53.2702 C   0  0  0  1  0  0
   -9.1054  -29.6223   52.9318 C   0  0  0  1  0  0
   -9.2381  -28.1402   55.5940 O   0  0  0  1  0  0
   -7.1171  -28.7501   55.9223 O   0  0  0  1  0  0
   -2.3833  -27.4934   50.4735 H   0  0
   -2.5176  -22.7369   51.1958 H   0  0
   -3.0049  -23.5711   52.6564 H   0  0
   -1.9096  -25.9594   49.2685 H   0  0
   -2.4216  -24.2879   49.0867 H   0  0
   -4.3104  -29.1231   50.6459 H   0  0
   -1.1723  -24.4511   53.5565 H   0  0
   -5.1228  -23.3215   51.8229 H   0  0
   -4.5437  -23.0791   50.1587 H   0  0
   -4.0772  -26.7418   49.6040 H   0  0
   -4.4592  -25.2953   48.6402 H   0  0
   -2.6631  -30.0975   55.2434 H   0  0
   -5.1931  -31.0811   51.8933 H   0  0
    2.6274  -24.1315   50.3936 H   0  0
   -0.6678  -24.6766   48.8338 H   0  0
    1.0999  -24.0070   54.4081 H   0  0
   -0.4308  -29.3295   55.0651 H   0  0
   -1.6218  -28.4396   55.9834 H   0  0
   -0.0597  -27.6149   55.5474 H   0  0
    3.0161  -23.8772   52.8244 H   0  0
    0.8384  -26.6095   48.9422 H   0  0
    2.2547  -25.5499   48.7905 H   0  0
    1.1330  -25.7350   47.4134 H   0  0
    1.7820  -22.9438   48.5946 H   0  0
    0.0966  -22.4176   48.6721 H   0  0
    0.6781  -23.3101   47.2257 H   0  0
   -4.9306  -31.4328   55.3488 H   0  0
   -3.6724  -32.4646   54.6935 H   0  0
   -5.2949  -32.4390   53.8858 H   0  0
   -7.4828  -25.4274   50.4147 H   0  0
   -4.0944  -26.4439   52.8946 H   0  0
   -8.8833  -27.0627   51.6710 H   0  0
   -5.4667  -28.1238   54.0926 H   0  0
   -7.8463  -30.9137   54.1295 H   0  0
   -7.1233  -30.3096   52.3961 H   0  0
   -9.1668  -29.3519   51.8777 H   0  0
   -9.8895  -29.9547   53.6121 H   0  0
   -6.3514  -28.1542   55.5209 H   0  0
  1  2  2  0
  2  3  1  0
  2  4  1  0
  3  5  1  0
  4  6  1  0
  4  7  1  0
  4  8  1  0
  5  9  2  0
  5 10  1  0
  6 11  2  0
  6 12  1  0
  7 13  1  0
  8 14  1  0
  9 15  1  0
  9 16  1  0
 10 17  2  0
 11 18  1  0
 11 19  1  0
 12 20  2  0
 13 21  1  0
 14 21  1  0
 15 22  1  0
 16 23  2  0
 17 23  1  0
 18 24  2  0
 19 25  1  0
 19 26  1  0
 20 24  1  0
 21 27  1  0
 23 28  1  0
 27 29  2  0
 27 30  1  0
 29 31  1  0
 30 32  2  0
 31 33  2  0
 32 33  1  0
 33 34  1  0
 34 35  1  0
 34 36  1  0
 34 37  1  0
 35 38  2  0
 35 39  1  0
 36 37  1  0
  3 40  1  0
  7 41  1  0
  7 42  1  0
  8 43  1  0
  8 44  1  0
 10 45  1  0
 12 46  1  0
 13 47  1  0
 13 48  1  0
 14 49  1  0
 14 50  1  0
 16 51  1  0
 17 52  1  0
 18 53  1  0
 19 54  1  0
 20 55  1  0
 22 56  1  0
 22 57  1  0
 22 58  1  0
 24 59  1  0
 25 60  1  0
 25 61  1  0
 25 62  1  0
 26 63  1  0
 26 64  1  0
 26 65  1  0
 28 66  1  0
 28 67  1  0
 28 68  1  0
 29 69  1  0
 30 70  1  0
 31 71  1  0
 32 72  1  0
 36 73  1  0
 36 74  1  0
 37 75  1  0
 37 76  1  0
 39 77  1  0
M  END
> <Name>
0

> <AbsoluteEnergy>
80.9266

> <Clean Energy>
115.286

> <Column 1>
0

> <ConfNumber>
71

> <Filter_Pass>
Ref

> <IC50_nM>
33.4

> <LogP>
6.42

> <MOL_NUMBER>
1

> <QSAR_Score_pIC50>
7.476

> <RelativeEnergy>
17.0386

> <SMILES>
COC1=C(NC(C2(C3=C(C(C)C)C=CC=C3)CCN(C4=CC=C(C5(C(O)=O)CC5)C=C4)CC2)=O)C=CC(C)=C1

> <Toxicity_Alerts>
DILI, Basic N (hERG Warning)

> <Type>
Reference

> <POSE_NUMBER>
5

> <LibDockScore>
113.5442

> <HotSpots>
-0.93,-23.32,46.98,A,25,26
-7.93,-28.32,52.38,A,59,31
-7.73,-27.92,56.98,P,70,39

$$$$
0
  SciTegic05082609073D

 77 81  0  0  0  0            999 V2000
   -3.6598  -30.6630   52.7709 O   0  0  0  1  0  0
   -4.1031  -29.6860   52.2139 C   0  0  0  1  0  0
   -5.3817  -29.1955   52.4525 N   0  0  0  1  0  0
   -3.2620  -28.9261   51.1831 C   0  0  0  1  0  0
   -6.3895  -29.6120   53.3111 C   0  0  0  1  0  0
   -3.1976  -27.4497   51.6340 C   0  0  0  1  0  0
   -3.9994  -29.2159   49.8059 C   0  0  0  1  0  0
   -1.8124  -29.4762   50.9205 C   0  0  0  1  0  0
   -6.1857  -30.2173   54.5813 C   0  0  0  1  0  0
   -7.7086  -29.3760   52.8598 C   0  0  0  1  0  0
   -2.4208  -27.0159   52.7579 C   0  0  0  1  0  0
   -3.9523  -26.4651   50.9473 C   0  0  0  1  0  0
   -3.1103  -29.1257   48.5411 C   0  0  0  1  0  0
   -1.0522  -28.6683   49.8240 C   0  0  0  1  0  0
   -4.9486  -30.3804   55.0432 O   0  0  0  1  0  0
   -7.3189  -30.6098   55.3346 C   0  0  0  1  0  0
   -8.8147  -29.7548   53.6261 C   0  0  0  1  0  0
   -2.3387  -25.6374   53.0598 C   0  0  0  1  0  0
   -1.6777  -27.9567   53.6781 C   0  0  0  1  0  0
   -3.8878  -25.1086   51.2856 C   0  0  0  1  0  0
   -2.0209  -28.1600   48.8058 N   0  0  0  1  0  0
   -4.6511  -31.1532   56.2108 C   0  0  0  1  0  0
   -8.6260  -30.3823   54.8663 C   0  0  0  1  0  0
   -3.0644  -24.6904   52.3314 C   0  0  0  1  0  0
   -0.4387  -27.2896   54.3037 C   0  0  0  1  0  0
   -2.6034  -28.5549   54.7551 C   0  0  0  1  0  0
   -2.0142  -26.8556   48.3166 C   0  0  0  1  0  0
   -9.8115  -30.7970   55.6724 C   0  0  0  1  0  0
   -2.8350  -26.5099   47.2172 C   0  0  0  1  0  0
   -1.2543  -25.8350   48.9337 C   0  0  0  1  0  0
   -3.0388  -25.1708   46.8706 C   0  0  0  1  0  0
   -1.4724  -24.4879   48.5969 C   0  0  0  1  0  0
   -2.4253  -24.1545   47.6168 C   0  0  0  1  0  0
   -2.8440  -22.7243   47.3855 C   0  0  0  1  0  0
   -4.2000  -22.4713   48.0420 C   0  0  0  1  0  0
   -1.8255  -21.5978   47.3299 C   0  0  0  1  0  0
   -2.5143  -22.0506   46.0640 C   0  0  0  1  0  0
   -5.2132  -22.6531   47.4093 O   0  0  0  1  0  0
   -4.2564  -22.0881   49.3178 O   0  0  0  1  0  0
   -5.6361  -28.3379   51.8654 H   0  0
   -4.4391  -30.2123   49.8493 H   0  0
   -4.8262  -28.5138   49.6981 H   0  0
   -1.2432  -29.4358   51.8492 H   0  0
   -1.8776  -30.5192   50.6108 H   0  0
   -7.8658  -28.8899   51.8969 H   0  0
   -4.6035  -26.7746   50.1298 H   0  0
   -3.7073  -28.7810   47.6968 H   0  0
   -2.6855  -30.1053   48.3217 H   0  0
   -0.5373  -27.8259   50.2858 H   0  0
   -0.3216  -29.3144   49.3372 H   0  0
   -7.1753  -31.0988   56.2981 H   0  0
   -9.8233  -29.5626   53.2601 H   0  0
   -1.6971  -25.3064   53.8764 H   0  0
   -1.3212  -28.7833   53.0635 H   0  0
   -4.4802  -24.3796   50.7326 H   0  0
   -5.0855  -32.1297   55.9965 H   0  0
   -5.2674  -30.7015   56.9881 H   0  0
   -3.5955  -31.2040   56.4776 H   0  0
   -2.9875  -23.6317   52.5790 H   0  0
   -0.7649  -26.4133   54.8639 H   0  0
    0.2228  -26.9679   53.4993 H   0  0
    0.0800  -27.9862   54.9623 H   0  0
   -3.4100  -29.0931   54.2572 H   0  0
   -3.0303  -27.7376   55.3364 H   0  0
   -2.0469  -29.2291   55.4061 H   0  0
   -9.6781  -30.3001   56.6333 H   0  0
   -9.6676  -31.8637   55.8444 H   0  0
  -10.7722  -30.5702   55.2101 H   0  0
   -3.3138  -27.2964   46.6339 H   0  0
   -0.4966  -26.0940   49.6733 H   0  0
   -3.6736  -24.9173   46.0216 H   0  0
   -0.9039  -23.7023   49.0945 H   0  0
   -0.8053  -21.9770   47.3900 H   0  0
   -2.2432  -20.6624   47.7023 H   0  0
   -3.2979  -21.3557   45.7623 H   0  0
   -1.8610  -22.6713   45.4508 H   0  0
   -3.6683  -21.2194   49.3620 H   0  0
  1  2  2  0
  2  3  1  0
  2  4  1  0
  3  5  1  0
  4  6  1  0
  4  7  1  0
  4  8  1  0
  5  9  2  0
  5 10  1  0
  6 11  2  0
  6 12  1  0
  7 13  1  0
  8 14  1  0
  9 15  1  0
  9 16  1  0
 10 17  2  0
 11 18  1  0
 11 19  1  0
 12 20  2  0
 13 21  1  0
 14 21  1  0
 15 22  1  0
 16 23  2  0
 17 23  1  0
 18 24  2  0
 19 25  1  0
 19 26  1  0
 20 24  1  0
 21 27  1  0
 23 28  1  0
 27 29  2  0
 27 30  1  0
 29 31  1  0
 30 32  2  0
 31 33  2  0
 32 33  1  0
 33 34  1  0
 34 35  1  0
 34 36  1  0
 34 37  1  0
 35 38  2  0
 35 39  1  0
 36 37  1  0
  3 40  1  0
  7 41  1  0
  7 42  1  0
  8 43  1  0
  8 44  1  0
 10 45  1  0
 12 46  1  0
 13 47  1  0
 13 48  1  0
 14 49  1  0
 14 50  1  0
 16 51  1  0
 17 52  1  0
 18 53  1  0
 19 54  1  0
 20 55  1  0
 22 56  1  0
 22 57  1  0
 22 58  1  0
 24 59  1  0
 25 60  1  0
 25 61  1  0
 25 62  1  0
 26 63  1  0
 26 64  1  0
 26 65  1  0
 28 66  1  0
 28 67  1  0
 28 68  1  0
 29 69  1  0
 30 70  1  0
 31 71  1  0
 32 72  1  0
 36 73  1  0
 36 74  1  0
 37 75  1  0
 37 76  1  0
 39 77  1  0
M  END
> <Name>
0

> <AbsoluteEnergy>
80.1537

> <Clean Energy>
115.286

> <Column 1>
0

> <ConfNumber>
66

> <Filter_Pass>
Ref

> <IC50_nM>
33.4

> <LogP>
6.42

> <MOL_NUMBER>
1

> <QSAR_Score_pIC50>
7.476

> <RelativeEnergy>
16.2657

> <SMILES>
COC1=C(NC(C2(C3=C(C(C)C)C=CC=C3)CCN(C4=CC=C(C5(C(O)=O)CC5)C=C4)CC2)=O)C=CC(C)=C1

> <Toxicity_Alerts>
DILI, Basic N (hERG Warning)

> <Type>
Reference

> <POSE_NUMBER>
6

> <LibDockScore>
113.1502

> <HotSpots>
-1.93,-29.12,49.19,A,34,13
-4.13,-31.12,56.59,A,79,22
-1.73,-21.72,46.78,A,24,36

$$$$
0
  SciTegic05082609073D

 77 81  0  0  0  0            999 V2000
   -1.1829  -22.7326   49.2538 O   0  0  0  1  0  0
   -1.7738  -23.7903   49.2794 C   0  0  0  1  0  0
   -2.7934  -24.0483   48.3765 N   0  0  0  1  0  0
   -1.4204  -24.8536   50.3397 C   0  0  0  1  0  0
   -3.2428  -23.2238   47.3569 C   0  0  0  1  0  0
    0.0643  -24.7444   50.7362 C   0  0  0  1  0  0
   -2.4282  -24.5294   51.5116 C   0  0  0  1  0  0
   -1.7208  -26.3196   49.8552 C   0  0  0  1  0  0
   -2.4046  -22.3653   46.5962 C   0  0  0  1  0  0
   -4.6265  -23.2681   47.0849 C   0  0  0  1  0  0
    1.1192  -24.6415   49.7639 C   0  0  0  1  0  0
    0.4319  -24.7351   52.1061 C   0  0  0  1  0  0
   -2.6419  -25.6197   52.5804 C   0  0  0  1  0  0
   -1.7766  -27.3538   50.9895 C   0  0  0  1  0  0
   -1.0875  -22.3911   46.7947 O   0  0  0  1  0  0
   -3.0015  -21.5180   45.6304 C   0  0  0  1  0  0
   -5.1965  -22.4299   46.1209 C   0  0  0  1  0  0
    2.4607  -24.5386   50.2007 C   0  0  0  1  0  0
    0.8949  -24.6243   48.2660 C   0  0  0  1  0  0
    1.7674  -24.6365   52.5146 C   0  0  0  1  0  0
   -2.8144  -26.9505   51.9610 N   0  0  0  1  0  0
   -0.1964  -21.4761   46.1514 C   0  0  0  1  0  0
   -4.3906  -21.5347   45.4023 C   0  0  0  1  0  0
    2.7828  -24.5373   51.5636 C   0  0  0  1  0  0
    1.4797  -23.3604   47.6083 C   0  0  0  1  0  0
    1.4459  -25.8866   47.5717 C   0  0  0  1  0  0
   -3.8848  -27.7539   52.2874 C   0  0  0  1  0  0
   -4.9961  -20.6015   44.4026 C   0  0  0  1  0  0
   -3.6845  -29.1272   52.5178 C   0  0  0  1  0  0
   -5.1792  -27.2061   52.4222 C   0  0  0  1  0  0
   -4.7397  -29.9231   52.9836 C   0  0  0  1  0  0
   -6.2405  -28.0117   52.8750 C   0  0  0  1  0  0
   -6.0116  -29.3642   53.2022 C   0  0  0  1  0  0
   -7.1078  -30.2131   53.8101 C   0  0  0  1  0  0
   -7.2086  -30.0354   55.3257 C   0  0  0  1  0  0
   -7.3536  -31.6200   53.2837 C   0  0  0  1  0  0
   -8.3535  -30.5254   52.9909 C   0  0  0  1  0  0
   -8.3017  -30.0300   55.8437 O   0  0  0  1  0  0
   -6.0982  -29.8891   56.0589 O   0  0  0  1  0  0
   -3.2898  -24.9907   48.4781 H   0  0
   -2.0909  -23.6223   52.0131 H   0  0
   -3.3969  -24.2863   51.0750 H   0  0
   -0.9517  -26.6210   49.1440 H   0  0
   -2.6741  -26.3274   49.3267 H   0  0
   -5.2601  -23.9651   47.6335 H   0  0
   -0.3487  -24.8069   52.8635 H   0  0
   -3.5290  -25.3804   53.1668 H   0  0
   -1.7793  -25.6440   53.2464 H   0  0
   -2.0239  -28.3325   50.5783 H   0  0
   -0.8091  -27.4003   51.4893 H   0  0
   -2.3731  -20.8401   45.0528 H   0  0
   -6.2684  -22.4725   45.9279 H   0  0
    3.2588  -24.4588   49.4626 H   0  0
   -0.1865  -24.6132   48.1295 H   0  0
    2.0137  -24.6373   53.5764 H   0  0
   -0.5816  -20.4939   46.4254 H   0  0
   -0.4021  -21.6082   45.0892 H   0  0
    0.8569  -21.6052   46.4006 H   0  0
    3.8230  -24.4591   51.8799 H   0  0
    2.5489  -23.3274   47.8176 H   0  0
    1.0057  -22.4881   48.0583 H   0  0
    1.3057  -23.3716   46.5323 H   0  0
    0.9516  -26.7560   48.0051 H   0  0
    2.5138  -25.9506   47.7805 H   0  0
    1.2703  -25.8459   46.4967 H   0  0
   -4.4718  -20.8089   43.4698 H   0  0
   -4.6926  -19.6060   44.7265 H   0  0
   -6.0774  -20.6973   44.3043 H   0  0
   -2.7070  -29.5729   52.3337 H   0  0
   -5.3564  -26.1593   52.1755 H   0  0
   -4.5735  -30.9827   53.1778 H   0  0
   -7.2407  -27.5898   52.9729 H   0  0
   -7.7058  -32.2860   54.0714 H   0  0
   -6.7294  -31.8369   52.4169 H   0  0
   -8.2615  -30.1598   51.9682 H   0  0
   -9.2371  -30.6079   53.6238 H   0  0
   -5.6061  -29.0654   55.6325 H   0  0
  1  2  2  0
  2  3  1  0
  2  4  1  0
  3  5  1  0
  4  6  1  0
  4  7  1  0
  4  8  1  0
  5  9  2  0
  5 10  1  0
  6 11  2  0
  6 12  1  0
  7 13  1  0
  8 14  1  0
  9 15  1  0
  9 16  1  0
 10 17  2  0
 11 18  1  0
 11 19  1  0
 12 20  2  0
 13 21  1  0
 14 21  1  0
 15 22  1  0
 16 23  2  0
 17 23  1  0
 18 24  2  0
 19 25  1  0
 19 26  1  0
 20 24  1  0
 21 27  1  0
 23 28  1  0
 27 29  2  0
 27 30  1  0
 29 31  1  0
 30 32  2  0
 31 33  2  0
 32 33  1  0
 33 34  1  0
 34 35  1  0
 34 36  1  0
 34 37  1  0
 35 38  2  0
 35 39  1  0
 36 37  1  0
  3 40  1  0
  7 41  1  0
  7 42  1  0
  8 43  1  0
  8 44  1  0
 10 45  1  0
 12 46  1  0
 13 47  1  0
 13 48  1  0
 14 49  1  0
 14 50  1  0
 16 51  1  0
 17 52  1  0
 18 53  1  0
 19 54  1  0
 20 55  1  0
 22 56  1  0
 22 57  1  0
 22 58  1  0
 24 59  1  0
 25 60  1  0
 25 61  1  0
 25 62  1  0
 26 63  1  0
 26 64  1  0
 26 65  1  0
 28 66  1  0
 28 67  1  0
 28 68  1  0
 29 69  1  0
 30 70  1  0
 31 71  1  0
 32 72  1  0
 36 73  1  0
 36 74  1  0
 37 75  1  0
 37 76  1  0
 39 77  1  0
M  END
> <Name>
0

> <AbsoluteEnergy>
74.4552

> <Clean Energy>
115.286

> <Column 1>
0

> <ConfNumber>
37

> <Filter_Pass>
Ref

> <IC50_nM>
33.4

> <LogP>
6.42

> <MOL_NUMBER>
1

> <QSAR_Score_pIC50>
7.476

> <RelativeEnergy>
10.5672

> <SMILES>
COC1=C(NC(C2(C3=C(C(C)C)C=CC=C3)CCN(C4=CC=C(C5(C(O)=O)CC5)C=C4)CC2)=O)C=CC(C)=C1

> <Toxicity_Alerts>
DILI, Basic N (hERG Warning)

> <Type>
Reference

> <POSE_NUMBER>
7

> <LibDockScore>
103.4448

> <HotSpots>
-2.53,-21.12,45.98,A,16,16
2.27,-24.92,52.19,A,58,24
-8.53,-31.32,51.19,A,51,37

$$$$
4
  SciTegic05082609073D

 74 78  0  0  0  0            999 V2000
    4.7610  -23.5672   50.4724 Cl  0  0  0  1  0  0
    3.0780  -23.6568   50.1577 C   0  0  0  1  0  0
    2.5674  -23.2670   48.9084 C   0  0  0  1  0  0
    2.2043  -24.1196   51.1507 C   0  0  0  1  0  0
    1.1884  -23.3238   48.6234 C   0  0  0  1  0  0
    0.8331  -24.2073   50.8853 C   0  0  0  1  0  0
    0.8585  -22.8671   47.4120 O   0  0  0  1  0  0
    0.3041  -23.8326   49.6281 C   0  0  0  1  0  0
   -0.4776  -22.6001   46.9719 C   0  0  0  1  0  0
   -1.0552  -24.0046   49.4314 N   0  0  0  1  0  0
   -1.9727  -24.2889   50.4321 C   0  0  0  1  0  0
   -1.7586  -23.9462   51.5754 O   0  0  0  1  0  0
   -3.2653  -25.0455   50.0931 C   0  0  0  1  0  0
   -3.9907  -24.2756   48.9646 C   0  0  0  1  0  0
   -4.1718  -25.1033   51.3845 C   0  0  0  1  0  0
   -2.7929  -26.5208   49.8611 C   0  0  0  1  0  0
   -4.0319  -24.5413   47.5444 C   0  0  0  1  0  0
   -4.6897  -23.1236   49.4218 C   0  0  0  1  0  0
   -5.2877  -26.1630   51.3506 C   0  0  0  1  0  0
   -3.9151  -27.5841   49.8754 C   0  0  0  1  0  0
   -4.7874  -23.6817   46.7097 C   0  0  0  1  0  0
   -3.3305  -25.6549   46.7956 C   0  0  0  1  0  0
   -5.4274  -22.2945   48.5716 C   0  0  0  1  0  0
   -4.6513  -27.4855   51.1553 N   0  0  0  1  0  0
   -5.4823  -22.5777   47.2107 C   0  0  0  1  0  0
   -1.8614  -25.3020   46.4976 C   0  0  0  1  0  0
   -4.0828  -26.0703   45.5125 C   0  0  0  1  0  0
   -4.6629  -28.4926   52.1140 C   0  0  0  1  0  0
   -5.5928  -28.4856   53.1792 C   0  0  0  1  0  0
   -3.7181  -29.5410   52.0485 C   0  0  0  1  0  0
   -5.5497  -29.4790   54.1727 C   0  0  0  1  0  0
   -3.6757  -30.5320   53.0403 C   0  0  0  1  0  0
   -4.5809  -30.4969   54.1153 C   0  0  0  1  0  0
   -4.4993  -31.5402   55.2053 C   0  0  0  1  0  0
   -3.8552  -31.0119   56.4855 C   0  0  0  1  0  0
   -4.2260  -32.9869   54.8201 C   0  0  0  1  0  0
   -5.6012  -32.5856   55.3006 C   0  0  0  1  0  0
   -4.2801  -31.3787   57.5590 O   0  0  0  1  0  0
   -2.8325  -30.1556   56.3957 O   0  0  0  1  0  0
    3.2547  -22.9119   48.1406 H   0  0
    2.5917  -24.4105   52.1271 H   0  0
    0.1602  -24.5711   51.6618 H   0  0
   -0.8518  -21.9098   47.7279 H   0  0
   -0.9879  -23.5471   47.1476 H   0  0
   -0.5831  -22.2300   45.9521 H   0  0
   -1.4262  -23.9112   48.4321 H   0  0
   -4.6270  -24.1247   51.5371 H   0  0
   -3.5364  -25.2955   52.2491 H   0  0
   -2.2764  -26.5745   48.9028 H   0  0
   -2.0618  -26.7781   50.6275 H   0  0
   -4.6481  -22.8765   50.4826 H   0  0
   -5.8319  -26.1534   52.2950 H   0  0
   -5.9663  -25.9566   50.5229 H   0  0
   -3.4782  -28.5783   49.7822 H   0  0
   -4.5995  -27.4034   49.0465 H   0  0
   -4.8281  -23.8884   45.6403 H   0  0
   -3.3350  -26.5220   47.4561 H   0  0
   -5.9569  -21.4305   48.9730 H   0  0
   -6.0627  -21.9435   46.5406 H   0  0
   -1.3500  -25.1196   47.4427 H   0  0
   -1.8379  -24.3902   45.9009 H   0  0
   -1.3757  -26.1157   45.9590 H   0  0
   -4.1672  -25.1943   44.8694 H   0  0
   -5.0842  -26.3947   45.7956 H   0  0
   -3.5551  -26.8720   44.9959 H   0  0
   -6.3497  -27.7029   53.2303 H   0  0
   -3.0138  -29.5802   51.2175 H   0  0
   -6.2698  -29.4604   54.9907 H   0  0
   -2.9382  -31.3322   52.9773 H   0  0
   -3.6654  -33.5084   55.5959 H   0  0
   -4.1993  -33.1139   53.7379 H   0  0
   -6.3067  -32.4998   54.4741 H   0  0
   -5.7722  -32.8928   56.3323 H   0  0
   -3.1972  -29.3560   55.8211 H   0  0
  1  2  1  0
  2  3  2  0
  2  4  1  0
  3  5  1  0
  4  6  2  0
  5  7  1  0
  5  8  2  0
  6  8  1  0
  7  9  1  0
  8 10  1  0
 10 11  1  0
 11 12  2  0
 11 13  1  0
 13 14  1  0
 13 15  1  0
 13 16  1  0
 14 17  2  0
 14 18  1  0
 15 19  1  0
 16 20  1  0
 17 21  1  0
 17 22  1  0
 18 23  2  0
 19 24  1  0
 20 24  1  0
 21 25  2  0
 22 26  1  0
 22 27  1  0
 23 25  1  0
 24 28  1  0
 28 29  2  0
 28 30  1  0
 29 31  1  0
 30 32  2  0
 31 33  2  0
 32 33  1  0
 33 34  1  0
 34 35  1  0
 34 36  1  0
 34 37  1  0
 35 38  2  0
 35 39  1  0
 36 37  1  0
  3 40  1  0
  4 41  1  0
  6 42  1  0
  9 43  1  0
  9 44  1  0
  9 45  1  0
 10 46  1  0
 15 47  1  0
 15 48  1  0
 16 49  1  0
 16 50  1  0
 18 51  1  0
 19 52  1  0
 19 53  1  0
 20 54  1  0
 20 55  1  0
 21 56  1  0
 22 57  1  0
 23 58  1  0
 25 59  1  0
 26 60  1  0
 26 61  1  0
 26 62  1  0
 27 63  1  0
 27 64  1  0
 27 65  1  0
 29 66  1  0
 30 67  1  0
 31 68  1  0
 32 69  1  0
 36 70  1  0
 36 71  1  0
 37 72  1  0
 37 73  1  0
 39 74  1  0
M  END
> <Name>
4

> <AbsoluteEnergy>
82.325

> <Clean Energy>
120.266

> <Column 1>
4

> <ConfNumber>
102

> <Filter_Pass>
Failed

> <IC50_nM>
34.99

> <LogP>
6.77

> <MOL_NUMBER>
2

> <QSAR_Score_pIC50>
7.456

> <RelativeEnergy>
18.5172

> <SMILES>
COc1cc(Cl)ccc1NC(=O)C1(c2ccccc2C(C)C)CCN(c2ccc(C3(C(=O)O)CC3)cc2)CC1

> <Toxicity_Alerts>
DILI, Basic N (hERG Warning)

> <Type>
Analog

> <POSE_NUMBER>
1

> <LibDockScore>
135.2808

> <HotSpots>
4.67,-22.92,49.98,A,40,1
-2.93,-26.32,45.98,A,15,26
-4.33,-31.92,57.78,P,73,38

$$$$
4
  SciTegic05082609073D

 74 78  0  0  0  0            999 V2000
  -11.4089  -31.4371   55.0663 Cl  0  0  0  1  0  0
  -10.1905  -30.3516   54.5347 C   0  0  0  1  0  0
   -9.9827  -30.1431   53.1611 C   0  0  0  1  0  0
   -9.4038  -29.6667   55.4725 C   0  0  0  1  0  0
   -8.9848  -29.2516   52.7031 C   0  0  0  1  0  0
   -8.3974  -28.7887   55.0347 C   0  0  0  1  0  0
   -8.8002  -29.0013   51.4062 O   0  0  0  1  0  0
   -8.1647  -28.5859   53.6553 C   0  0  0  1  0  0
   -9.6183  -29.5733   50.3814 C   0  0  0  1  0  0
   -7.1452  -27.7213   53.2655 N   0  0  0  1  0  0
   -6.1374  -28.0393   52.3648 C   0  0  0  1  0  0
   -6.1524  -29.1030   51.7820 O   0  0  0  1  0  0
   -4.9763  -27.0756   52.0726 C   0  0  0  1  0  0
   -3.8518  -27.8317   51.3383 C   0  0  0  1  0  0
   -4.3263  -26.3298   53.2917 C   0  0  0  1  0  0
   -5.6871  -25.9383   51.2389 C   0  0  0  1  0  0
   -3.1320  -28.9048   51.9590 C   0  0  0  1  0  0
   -3.4863  -27.4738   50.0138 C   0  0  0  1  0  0
   -3.2262  -25.3155   52.8561 C   0  0  0  1  0  0
   -5.0731  -24.5252   51.3863 C   0  0  0  1  0  0
   -2.0869  -29.5427   51.2537 C   0  0  0  1  0  0
   -3.4201  -29.4178   53.3541 C   0  0  0  1  0  0
   -2.4309  -28.1036   49.3412 C   0  0  0  1  0  0
   -3.6029  -24.6193   51.5857 N   0  0  0  1  0  0
   -1.7325  -29.1422   49.9605 C   0  0  0  1  0  0
   -3.8404  -30.9003   53.3455 C   0  0  0  1  0  0
   -2.2422  -29.1727   54.3153 C   0  0  0  1  0  0
   -2.6659  -24.1935   50.6389 C   0  0  0  1  0  0
   -1.2764  -24.3686   50.8482 C   0  0  0  1  0  0
   -3.0862  -23.6033   49.4220 C   0  0  0  1  0  0
   -0.3514  -24.0519   49.8383 C   0  0  0  1  0  0
   -2.1602  -23.2605   48.4266 C   0  0  0  1  0  0
   -0.7950  -23.5305   48.6097 C   0  0  0  1  0  0
    0.1668  -23.2810   47.4714 C   0  0  0  1  0  0
    1.1279  -24.4534   47.2888 C   0  0  0  1  0  0
   -0.3342  -22.5301   46.2468 C   0  0  0  1  0  0
    0.6744  -21.8801   47.1630 C   0  0  0  1  0  0
    0.8388  -25.3464   46.5260 O   0  0  0  1  0  0
    2.2637  -24.4748   47.9901 O   0  0  0  1  0  0
  -10.5996  -30.6762   52.4377 H   0  0
   -9.5727  -29.8151   56.5391 H   0  0
   -7.7893  -28.2580   55.7673 H   0  0
  -10.6309  -29.2835   50.6622 H   0  0
   -9.5422  -30.6468   50.5540 H   0  0
   -9.3576  -29.2843   49.3633 H   0  0
   -7.1378  -26.7397   53.6913 H   0  0
   -3.8845  -27.0645   53.9649 H   0  0
   -5.1041  -25.7965   53.8382 H   0  0
   -6.7356  -25.8927   51.5334 H   0  0
   -5.6689  -26.2158   50.1850 H   0  0
   -4.0429  -26.6863   49.5056 H   0  0
   -2.2855  -25.8458   52.7081 H   0  0
   -3.0888  -24.5743   53.6434 H   0  0
   -5.2785  -23.9461   50.4860 H   0  0
   -5.5215  -24.0228   52.2434 H   0  0
   -1.5462  -30.3628   51.7261 H   0  0
   -4.2663  -28.8424   53.7296 H   0  0
   -2.1555  -27.7835   48.3363 H   0  0
   -0.9146  -29.6390   49.4387 H   0  0
   -3.0348  -31.4847   52.9010 H   0  0
   -4.7327  -31.0024   52.7278 H   0  0
   -4.0423  -31.2469   54.3590 H   0  0
   -2.0473  -28.1009   54.3536 H   0  0
   -1.3621  -29.6766   53.9157 H   0  0
   -2.4739  -29.5502   55.3112 H   0  0
   -0.9199  -24.7535   51.8037 H   0  0
   -4.1466  -23.4125   49.2566 H   0  0
    0.7135  -24.2110   50.0080 H   0  0
   -2.5014  -22.7830   47.5081 H   0  0
   -1.3363  -22.1313   46.4043 H   0  0
    0.1316  -22.8998   45.3333 H   0  0
    1.6777  -21.9028   46.7375 H   0  0
    0.2097  -21.1356   47.8095 H   0  0
    1.9659  -24.4082   48.9948 H   0  0
  1  2  1  0
  2  3  2  0
  2  4  1  0
  3  5  1  0
  4  6  2  0
  5  7  1  0
  5  8  2  0
  6  8  1  0
  7  9  1  0
  8 10  1  0
 10 11  1  0
 11 12  2  0
 11 13  1  0
 13 14  1  0
 13 15  1  0
 13 16  1  0
 14 17  2  0
 14 18  1  0
 15 19  1  0
 16 20  1  0
 17 21  1  0
 17 22  1  0
 18 23  2  0
 19 24  1  0
 20 24  1  0
 21 25  2  0
 22 26  1  0
 22 27  1  0
 23 25  1  0
 24 28  1  0
 28 29  2  0
 28 30  1  0
 29 31  1  0
 30 32  2  0
 31 33  2  0
 32 33  1  0
 33 34  1  0
 34 35  1  0
 34 36  1  0
 34 37  1  0
 35 38  2  0
 35 39  1  0
 36 37  1  0
  3 40  1  0
  4 41  1  0
  6 42  1  0
  9 43  1  0
  9 44  1  0
  9 45  1  0
 10 46  1  0
 15 47  1  0
 15 48  1  0
 16 49  1  0
 16 50  1  0
 18 51  1  0
 19 52  1  0
 19 53  1  0
 20 54  1  0
 20 55  1  0
 21 56  1  0
 22 57  1  0
 23 58  1  0
 25 59  1  0
 26 60  1  0
 26 61  1  0
 26 62  1  0
 27 63  1  0
 27 64  1  0
 27 65  1  0
 29 66  1  0
 30 67  1  0
 31 68  1  0
 32 69  1  0
 36 70  1  0
 36 71  1  0
 37 72  1  0
 37 73  1  0
 39 74  1  0
M  END
> <Name>
4

> <AbsoluteEnergy>
74.1227

> <Clean Energy>
120.266

> <Column 1>
4

> <ConfNumber>
47

> <Filter_Pass>
Failed

> <IC50_nM>
34.99

> <LogP>
6.77

> <MOL_NUMBER>
2

> <QSAR_Score_pIC50>
7.456

> <RelativeEnergy>
10.3149

> <SMILES>
COc1cc(Cl)ccc1NC(=O)C1(c2ccccc2C(C)C)CCN(c2ccc(C3(C(=O)O)CC3)cc2)CC1

> <Toxicity_Alerts>
DILI, Basic N (hERG Warning)

> <Type>
Analog

> <POSE_NUMBER>
2

> <LibDockScore>
133.9896

> <HotSpots>
-9.33,-29.92,51.19,A,52,9
-5.93,-24.72,51.19,A,53,20
0.27,-22.52,46.78,A,23,37

$$$$
4
  SciTegic05082609073D

 74 78  0  0  0  0            999 V2000
   -5.2238  -21.1427   44.9300 Cl  0  0  0  1  0  0
   -4.3718  -21.8823   46.2189 C   0  0  0  1  0  0
   -5.0743  -22.5768   47.2181 C   0  0  0  1  0  0
   -2.9723  -21.7956   46.2804 C   0  0  0  1  0  0
   -4.3926  -23.1992   48.2891 C   0  0  0  1  0  0
   -2.2795  -22.4198   47.3288 C   0  0  0  1  0  0
   -5.0440  -23.8256   49.2699 O   0  0  0  1  0  0
   -2.9743  -23.1412   48.3283 C   0  0  0  1  0  0
   -6.4668  -23.7713   49.4121 C   0  0  0  1  0  0
   -2.2351  -23.7649   49.3279 N   0  0  0  1  0  0
   -2.4414  -25.0565   49.8088 C   0  0  0  1  0  0
   -3.2129  -25.8032   49.2491 O   0  0  0  1  0  0
   -1.7027  -25.5484   51.0629 C   0  0  0  1  0  0
   -0.2287  -25.0763   51.0539 C   0  0  0  1  0  0
   -1.7971  -27.1084   51.2894 C   0  0  0  1  0  0
   -2.5799  -24.9213   52.2077 C   0  0  0  1  0  0
    0.6470  -25.1040   49.9019 C   0  0  0  1  0  0
    0.3118  -24.5582   52.2641 C   0  0  0  1  0  0
   -2.7167  -27.6196   52.4341 C   0  0  0  1  0  0
   -4.0292  -25.4737   52.2389 C   0  0  0  1  0  0
    1.9561  -24.5662   50.0250 C   0  0  0  1  0  0
    0.3423  -25.6481   48.5076 C   0  0  0  1  0  0
    1.6159  -24.0534   52.3519 C   0  0  0  1  0  0
   -4.0543  -26.9552   52.4319 N   0  0  0  1  0  0
    2.4384  -24.0486   51.2278 C   0  0  0  1  0  0
   -0.7230  -26.7433   48.3777 C   0  0  0  1  0  0
    0.2315  -24.5716   47.4096 C   0  0  0  1  0  0
   -5.2540  -27.6605   52.6085 C   0  0  0  1  0  0
   -5.2747  -28.9876   53.1101 C   0  0  0  1  0  0
   -6.4927  -27.0587   52.2855 C   0  0  0  1  0  0
   -6.4885  -29.6898   53.2556 C   0  0  0  1  0  0
   -7.7044  -27.7589   52.4366 C   0  0  0  1  0  0
   -7.7128  -29.0885   52.9053 C   0  0  0  1  0  0
   -9.0157  -29.8747   53.0159 C   0  0  0  1  0  0
   -9.7435  -29.8305   54.3749 C   0  0  0  1  0  0
   -9.8931  -29.9945   51.7764 C   0  0  0  1  0  0
   -9.0841  -31.1813   52.2358 C   0  0  0  1  0  0
  -10.7661  -30.4703   54.5239 O   0  0  0  1  0  0
   -9.2775  -29.0965   55.3892 O   0  0  0  1  0  0
   -6.1614  -22.6367   47.1668 H   0  0
   -2.4249  -21.2447   45.5156 H   0  0
   -1.1928  -22.3481   47.3738 H   0  0
   -6.8406  -24.1237   48.4508 H   0  0
   -6.6856  -22.7046   49.4600 H   0  0
   -6.8701  -24.3286   50.2576 H   0  0
   -1.4371  -23.2031   49.7666 H   0  0
   -0.7915  -27.4900   51.4663 H   0  0
   -2.1265  -27.5692   50.3581 H   0  0
   -2.6173  -23.8401   52.0747 H   0  0
   -2.1049  -25.1218   53.1681 H   0  0
   -0.3129  -24.5539   53.1573 H   0  0
   -2.8551  -28.6954   52.3264 H   0  0
   -2.2309  -27.4347   53.3922 H   0  0
   -4.5758  -24.9988   53.0536 H   0  0
   -4.5271  -25.2282   51.3009 H   0  0
    2.6060  -24.5576   49.1500 H   0  0
    1.2630  -26.2004   48.3194 H   0  0
    1.9869  -23.6643   53.3001 H   0  0
    3.4490  -23.6445   51.2871 H   0  0
   -1.6290  -26.3258   48.8170 H   0  0
   -0.3914  -27.5544   49.0260 H   0  0
   -0.8793  -27.0754   47.3513 H   0  0
    1.1764  -24.0285   47.3933 H   0  0
   -0.5542  -23.8800   47.7135 H   0  0
    0.0137  -25.0088   46.4352 H   0  0
   -4.3381  -29.4715   53.3871 H   0  0
   -6.5092  -26.0345   51.9129 H   0  0
   -6.4792  -30.7085   53.6432 H   0  0
   -8.6456  -27.2682   52.1888 H   0  0
   -9.4374  -29.5053   50.9155 H   0  0
  -10.9455  -30.0974   52.0410 H   0  0
   -9.7044  -31.9188   52.7451 H   0  0
   -8.1958  -31.3258   51.6209 H   0  0
   -9.2030  -28.1289   54.9884 H   0  0
  1  2  1  0
  2  3  2  0
  2  4  1  0
  3  5  1  0
  4  6  2  0
  5  7  1  0
  5  8  2  0
  6  8  1  0
  7  9  1  0
  8 10  1  0
 10 11  1  0
 11 12  2  0
 11 13  1  0
 13 14  1  0
 13 15  1  0
 13 16  1  0
 14 17  2  0
 14 18  1  0
 15 19  1  0
 16 20  1  0
 17 21  1  0
 17 22  1  0
 18 23  2  0
 19 24  1  0
 20 24  1  0
 21 25  2  0
 22 26  1  0
 22 27  1  0
 23 25  1  0
 24 28  1  0
 28 29  2  0
 28 30  1  0
 29 31  1  0
 30 32  2  0
 31 33  2  0
 32 33  1  0
 33 34  1  0
 34 35  1  0
 34 36  1  0
 34 37  1  0
 35 38  2  0
 35 39  1  0
 36 37  1  0
  3 40  1  0
  4 41  1  0
  6 42  1  0
  9 43  1  0
  9 44  1  0
  9 45  1  0
 10 46  1  0
 15 47  1  0
 15 48  1  0
 16 49  1  0
 16 50  1  0
 18 51  1  0
 19 52  1  0
 19 53  1  0
 20 54  1  0
 20 55  1  0
 21 56  1  0
 22 57  1  0
 23 58  1  0
 25 59  1  0
 26 60  1  0
 26 61  1  0
 26 62  1  0
 27 63  1  0
 27 64  1  0
 27 65  1  0
 29 66  1  0
 30 67  1  0
 31 68  1  0
 32 69  1  0
 36 70  1  0
 36 71  1  0
 37 72  1  0
 37 73  1  0
 39 74  1  0
M  END
> <Name>
4

> <AbsoluteEnergy>
80.5688

> <Clean Energy>
120.266

> <Column 1>
4

> <ConfNumber>
91

> <Filter_Pass>
Failed

> <IC50_nM>
34.99

> <LogP>
6.77

> <MOL_NUMBER>
2

> <QSAR_Score_pIC50>
7.456

> <RelativeEnergy>
16.761

> <SMILES>
COc1cc(Cl)ccc1NC(=O)C1(c2ccccc2C(C)C)CCN(c2ccc(C3(C(=O)O)CC3)cc2)CC1

> <Toxicity_Alerts>
DILI, Basic N (hERG Warning)

> <Type>
Analog

> <POSE_NUMBER>
3

> <LibDockScore>
127.8771

> <HotSpots>
-2.53,-22.32,48.19,A,29,6
0.47,-23.32,53.78,A,67,23
-7.93,-28.32,52.38,A,59,32

$$$$
4
  SciTegic05082609073D

 74 78  0  0  0  0            999 V2000
   -5.4924  -21.0551   44.7175 Cl  0  0  0  1  0  0
   -4.4360  -21.7179   45.8916 C   0  0  0  1  0  0
   -4.9565  -22.4575   46.9670 C   0  0  0  1  0  0
   -3.0503  -21.5233   45.7832 C   0  0  0  1  0  0
   -4.1041  -23.0181   47.9459 C   0  0  0  1  0  0
   -2.1895  -22.0850   46.7383 C   0  0  0  1  0  0
   -4.5817  -23.6860   48.9969 O   0  0  0  1  0  0
   -2.7003  -22.8508   47.8130 C   0  0  0  1  0  0
   -5.9808  -23.7875   49.2789 C   0  0  0  1  0  0
   -1.7995  -23.4088   48.7139 N   0  0  0  1  0  0
   -1.8739  -24.6923   49.2518 C   0  0  0  1  0  0
   -2.6066  -25.5215   48.7603 O   0  0  0  1  0  0
   -1.0370  -25.0708   50.4834 C   0  0  0  1  0  0
    0.4380  -24.6388   50.3003 C   0  0  0  1  0  0
   -1.1361  -26.5965   50.8788 C   0  0  0  1  0  0
   -1.8015  -24.3079   51.6265 C   0  0  0  1  0  0
    1.1998  -24.7765   49.0774 C   0  0  0  1  0  0
    1.1002  -24.0443   51.4107 C   0  0  0  1  0  0
   -1.9608  -26.9645   52.1444 C   0  0  0  1  0  0
   -3.2512  -24.8181   51.8378 C   0  0  0  1  0  0
    2.5244  -24.2648   49.0357 C   0  0  0  1  0  0
    0.7543  -25.4172   47.7643 C   0  0  0  1  0  0
    2.4158  -23.5679   51.3370 C   0  0  0  1  0  0
   -3.2829  -26.2708   52.1861 N   0  0  0  1  0  0
    3.1280  -23.6698   50.1443 C   0  0  0  1  0  0
   -0.1178  -26.6764   47.8355 C   0  0  0  1  0  0
    0.2756  -24.4169   46.6933 C   0  0  0  1  0  0
   -4.4738  -26.9243   52.5364 C   0  0  0  1  0  0
   -4.4718  -28.1885   53.1804 C   0  0  0  1  0  0
   -5.7263  -26.3317   52.2517 C   0  0  0  1  0  0
   -5.6793  -28.8420   53.5008 C   0  0  0  1  0  0
   -6.9311  -26.9825   52.5772 C   0  0  0  1  0  0
   -6.9197  -28.2532   53.1879 C   0  0  0  1  0  0
   -8.2201  -28.9917   53.4901 C   0  0  0  1  0  0
   -8.7016  -28.9848   54.9553 C   0  0  0  1  0  0
   -9.3015  -29.0165   52.4174 C   0  0  0  1  0  0
   -8.4828  -30.2553   52.6808 C   0  0  0  1  0  0
   -9.6682  -29.6522   55.2676 O   0  0  0  1  0  0
   -8.0830  -28.2535   55.8865 O   0  0  0  1  0  0
   -6.0340  -22.6013   47.0478 H   0  0
   -2.6438  -20.9372   44.9590 H   0  0
   -1.1141  -21.9296   46.6514 H   0  0
   -6.4033  -24.2061   48.3655 H   0  0
   -6.3143  -22.7511   49.3305 H   0  0
   -6.2340  -24.3627   50.1695 H   0  0
   -0.9762  -22.7984   49.0213 H   0  0
   -0.1251  -26.9828   51.0087 H   0  0
   -1.5524  -27.1422   50.0320 H   0  0
   -1.8331  -23.2455   51.3849 H   0  0
   -1.2483  -24.4204   52.5589 H   0  0
    0.5632  -23.9561   52.3551 H   0  0
   -2.1251  -28.0419   52.1617 H   0  0
   -1.3908  -26.6942   53.0333 H   0  0
   -3.7175  -24.2486   52.6417 H   0  0
   -3.8247  -24.6581   50.9248 H   0  0
    3.0885  -24.3395   48.1060 H   0  0
    1.7080  -25.8182   47.4212 H   0  0
    2.8820  -23.1174   52.2132 H   0  0
    4.1469  -23.2885   50.0775 H   0  0
   -0.9912  -26.3962   48.4244 H   0  0
    0.4526  -27.3963   48.4225 H   0  0
   -0.3913  -27.0694   46.8563 H   0  0
    1.0983  -23.7273   46.5047 H   0  0
   -0.5507  -23.8521   47.1251 H   0  0
   -0.0309  -24.9215   45.7770 H   0  0
   -3.5224  -28.6616   53.4312 H   0  0
   -5.7590  -25.3536   51.7717 H   0  0
   -5.6525  -29.8128   53.9957 H   0  0
   -7.8825  -26.4992   52.3549 H   0  0
   -8.9773  -28.5046   51.5113 H   0  0
  -10.2967  -29.0905   52.8558 H   0  0
   -9.0409  -30.9915   53.2593 H   0  0
   -7.7207  -30.4048   51.9159 H   0  0
   -8.1009  -27.2788   55.4965 H   0  0
  1  2  1  0
  2  3  2  0
  2  4  1  0
  3  5  1  0
  4  6  2  0
  5  7  1  0
  5  8  2  0
  6  8  1  0
  7  9  1  0
  8 10  1  0
 10 11  1  0
 11 12  2  0
 11 13  1  0
 13 14  1  0
 13 15  1  0
 13 16  1  0
 14 17  2  0
 14 18  1  0
 15 19  1  0
 16 20  1  0
 17 21  1  0
 17 22  1  0
 18 23  2  0
 19 24  1  0
 20 24  1  0
 21 25  2  0
 22 26  1  0
 22 27  1  0
 23 25  1  0
 24 28  1  0
 28 29  2  0
 28 30  1  0
 29 31  1  0
 30 32  2  0
 31 33  2  0
 32 33  1  0
 33 34  1  0
 34 35  1  0
 34 36  1  0
 34 37  1  0
 35 38  2  0
 35 39  1  0
 36 37  1  0
  3 40  1  0
  4 41  1  0
  6 42  1  0
  9 43  1  0
  9 44  1  0
  9 45  1  0
 10 46  1  0
 15 47  1  0
 15 48  1  0
 16 49  1  0
 16 50  1  0
 18 51  1  0
 19 52  1  0
 19 53  1  0
 20 54  1  0
 20 55  1  0
 21 56  1  0
 22 57  1  0
 23 58  1  0
 25 59  1  0
 26 60  1  0
 26 61  1  0
 26 62  1  0
 27 63  1  0
 27 64  1  0
 27 65  1  0
 29 66  1  0
 30 67  1  0
 31 68  1  0
 32 69  1  0
 36 70  1  0
 36 71  1  0
 37 72  1  0
 37 73  1  0
 39 74  1  0
M  END
> <Name>
4

> <AbsoluteEnergy>
80.5688

> <Clean Energy>
120.266

> <Column 1>
4

> <ConfNumber>
91

> <Filter_Pass>
Failed

> <IC50_nM>
34.99

> <LogP>
6.77

> <MOL_NUMBER>
2

> <QSAR_Score_pIC50>
7.456

> <RelativeEnergy>
16.761

> <SMILES>
COc1cc(Cl)ccc1NC(=O)C1(c2ccccc2C(C)C)CCN(c2ccc(C3(C(=O)O)CC3)cc2)CC1

> <Toxicity_Alerts>
DILI, Basic N (hERG Warning)

> <Type>
Analog

> <POSE_NUMBER>
4

> <LibDockScore>
126.9596

> <HotSpots>
-2.53,-21.12,45.98,A,16,4
1.67,-24.32,50.98,A,50,18
0.27,-24.92,46.38,A,19,27

$$$$
4
  SciTegic05082609073D

 74 78  0  0  0  0            999 V2000
  -11.7835  -31.8315   60.0953 Cl  0  0  0  1  0  0
  -11.0216  -31.2672   58.6663 C   0  0  0  1  0  0
  -10.6010  -29.9299   58.5715 C   0  0  0  1  0  0
  -10.8200  -32.1387   57.5864 C   0  0  0  1  0  0
   -9.9729  -29.4442   57.3994 C   0  0  0  1  0  0
  -10.1885  -31.6785   56.4225 C   0  0  0  1  0  0
   -9.6074  -28.1695   57.2713 O   0  0  0  1  0  0
   -9.7446  -30.3414   56.3198 C   0  0  0  1  0  0
   -9.8208  -27.1961   58.2983 C   0  0  0  1  0  0
   -9.1093  -29.9662   55.1418 N   0  0  0  1  0  0
   -7.9043  -29.2851   55.0286 C   0  0  0  1  0  0
   -7.3229  -28.8999   56.0191 O   0  0  0  1  0  0
   -7.2947  -29.0144   53.6468 C   0  0  0  1  0  0
   -7.4872  -30.2090   52.6851 C   0  0  0  1  0  0
   -5.8113  -28.5572   53.7414 C   0  0  0  1  0  0
   -7.9954  -27.6879   53.1923 C   0  0  0  1  0  0
   -6.5874  -31.3290   52.5388 C   0  0  0  1  0  0
   -8.6592  -30.2137   51.8788 C   0  0  0  1  0  0
   -5.2096  -28.0988   52.4003 C   0  0  0  1  0  0
   -7.4809  -27.0682   51.8718 C   0  0  0  1  0  0
   -6.8629  -32.2982   51.5411 C   0  0  0  1  0  0
   -5.3315  -31.6284   53.3449 C   0  0  0  1  0  0
   -8.9088  -31.1951   50.9142 C   0  0  0  1  0  0
   -5.9901  -26.9885   51.7839 N   0  0  0  1  0  0
   -7.9998  -32.2336   50.7346 C   0  0  0  1  0  0
   -5.4477  -31.6553   54.8810 C   0  0  0  1  0  0
   -4.0626  -30.9517   52.7854 C   0  0  0  1  0  0
   -5.3583  -25.9480   51.1066 C   0  0  0  1  0  0
   -6.0498  -24.7567   50.7870 C   0  0  0  1  0  0
   -4.0043  -26.0671   50.7119 C   0  0  0  1  0  0
   -5.4296  -23.7454   50.0364 C   0  0  0  1  0  0
   -3.3829  -25.0517   49.9652 C   0  0  0  1  0  0
   -4.1028  -23.9002   49.6009 C   0  0  0  1  0  0
   -3.4604  -22.8452   48.7272 C   0  0  0  1  0  0
   -4.1750  -22.6720   47.3844 C   0  0  0  1  0  0
   -1.9492  -22.6732   48.7746 C   0  0  0  1  0  0
   -2.8428  -21.6223   49.3879 C   0  0  0  1  0  0
   -3.6874  -21.9533   46.5397 O   0  0  0  1  0  0
   -5.3248  -23.3196   47.1755 O   0  0  0  1  0  0
  -10.7608  -29.2561   59.4133 H   0  0
  -11.1543  -33.1741   57.6520 H   0  0
  -10.0381  -32.3611   55.5861 H   0  0
   -9.3297  -27.6241   59.1723 H   0  0
  -10.8931  -27.2446   58.4877 H   0  0
   -9.4736  -26.1900   58.0631 H   0  0
   -9.5993  -30.2293   54.2277 H   0  0
   -5.2126  -29.3806   54.1308 H   0  0
   -5.7409  -27.7370   54.4559 H   0  0
   -9.0639  -27.8777   53.0909 H   0  0
   -7.8867  -26.9482   53.9855 H   0  0
   -9.3928  -29.4198   52.0185 H   0  0
   -4.1851  -27.7647   52.5643 H   0  0
   -5.1874  -28.9428   51.7109 H   0  0
   -7.8923  -26.0641   51.7683 H   0  0
   -7.8503  -27.6622   51.0358 H   0  0
   -6.1629  -33.1216   51.3993 H   0  0
   -5.1965  -32.6948   53.1640 H   0  0
   -9.8117  -31.1469   50.3055 H   0  0
   -8.1746  -32.9905   49.9700 H   0  0
   -6.2153  -32.3958   55.1057 H   0  0
   -5.8436  -30.6799   55.1639 H   0  0
   -4.5049  -31.8765   55.3812 H   0  0
   -4.2403  -29.8764   52.7700 H   0  0
   -3.9296  -31.2946   51.7593 H   0  0
   -3.1870  -31.1902   53.3892 H   0  0
   -7.0765  -24.6220   51.1274 H   0  0
   -3.4376  -26.9557   50.9900 H   0  0
   -5.9793  -22.8369   49.7906 H   0  0
   -2.3396  -25.1571   49.6675 H   0  0
   -1.5528  -22.3519   47.8114 H   0  0
   -1.4983  -23.3114   49.5345 H   0  0
   -2.8672  -21.6996   50.4749 H   0  0
   -2.9230  -20.7410   48.7515 H   0  0
   -5.9553  -23.0178   47.9590 H   0  0
  1  2  1  0
  2  3  2  0
  2  4  1  0
  3  5  1  0
  4  6  2  0
  5  7  1  0
  5  8  2  0
  6  8  1  0
  7  9  1  0
  8 10  1  0
 10 11  1  0
 11 12  2  0
 11 13  1  0
 13 14  1  0
 13 15  1  0
 13 16  1  0
 14 17  2  0
 14 18  1  0
 15 19  1  0
 16 20  1  0
 17 21  1  0
 17 22  1  0
 18 23  2  0
 19 24  1  0
 20 24  1  0
 21 25  2  0
 22 26  1  0
 22 27  1  0
 23 25  1  0
 24 28  1  0
 28 29  2  0
 28 30  1  0
 29 31  1  0
 30 32  2  0
 31 33  2  0
 32 33  1  0
 33 34  1  0
 34 35  1  0
 34 36  1  0
 34 37  1  0
 35 38  2  0
 35 39  1  0
 36 37  1  0
  3 40  1  0
  4 41  1  0
  6 42  1  0
  9 43  1  0
  9 44  1  0
  9 45  1  0
 10 46  1  0
 15 47  1  0
 15 48  1  0
 16 49  1  0
 16 50  1  0
 18 51  1  0
 19 52  1  0
 19 53  1  0
 20 54  1  0
 20 55  1  0
 21 56  1  0
 22 57  1  0
 23 58  1  0
 25 59  1  0
 26 60  1  0
 26 61  1  0
 26 62  1  0
 27 63  1  0
 27 64  1  0
 27 65  1  0
 29 66  1  0
 30 67  1  0
 31 68  1  0
 32 69  1  0
 36 70  1  0
 36 71  1  0
 37 72  1  0
 37 73  1  0
 39 74  1  0
M  END
> <Name>
4

> <AbsoluteEnergy>
78.3225

> <Clean Energy>
120.266

> <Column 1>
4

> <ConfNumber>
79

> <Filter_Pass>
Failed

> <IC50_nM>
34.99

> <LogP>
6.77

> <MOL_NUMBER>
2

> <QSAR_Score_pIC50>
7.456

> <RelativeEnergy>
14.5147

> <SMILES>
COc1cc(Cl)ccc1NC(=O)C1(c2ccccc2C(C)C)CCN(c2ccc(C3(C(=O)O)CC3)cc2)CC1

> <Toxicity_Alerts>
DILI, Basic N (hERG Warning)

> <Type>
Analog

> <POSE_NUMBER>
5

> <LibDockScore>
124.1904

> <HotSpots>
-8.53,-31.32,51.19,A,51,23
-5.33,-24.12,49.78,A,36,31
-2.53,-22.32,48.19,A,29,36

$$$$
4
  SciTegic05082609073D

 74 78  0  0  0  0            999 V2000
   -1.2369  -30.7850   50.0484 Cl  0  0  0  1  0  0
   -1.5433  -29.1005   49.9902 C   0  0  0  1  0  0
   -1.4689  -28.3329   51.1645 C   0  0  0  1  0  0
   -1.8734  -28.4834   48.7723 C   0  0  0  1  0  0
   -1.7227  -26.9503   51.1371 C   0  0  0  1  0  0
   -2.1476  -27.1073   48.7332 C   0  0  0  1  0  0
   -1.6352  -26.2863   52.2830 O   0  0  0  1  0  0
   -2.0957  -26.3370   49.9126 C   0  0  0  1  0  0
   -1.0588  -24.9779   52.3328 C   0  0  0  1  0  0
   -2.4472  -25.0032   49.8742 N   0  0  0  1  0  0
   -3.5961  -24.5843   49.2317 C   0  0  0  1  0  0
   -4.3725  -25.4098   48.7991 O   0  0  0  1  0  0
   -3.9269  -23.0876   49.1073 C   0  0  0  1  0  0
   -3.1675  -22.4290   47.9454 C   0  0  0  1  0  0
   -3.5991  -22.4576   50.5125 C   0  0  0  1  0  0
   -5.4801  -22.8735   48.9556 C   0  0  0  1  0  0
   -3.7488  -22.1991   46.6552 C   0  0  0  1  0  0
   -1.8218  -22.0177   48.1397 C   0  0  0  1  0  0
   -4.2694  -23.1925   51.7003 C   0  0  0  1  0  0
   -6.2870  -22.9782   50.2809 C   0  0  0  1  0  0
   -2.9753  -21.5931   45.6391 C   0  0  0  1  0  0
   -5.1670  -22.5625   46.2850 C   0  0  0  1  0  0
   -1.0719  -21.4238   47.1169 C   0  0  0  1  0  0
   -5.5623  -23.8159   51.2816 N   0  0  0  1  0  0
   -1.6481  -21.2106   45.8629 C   0  0  0  1  0  0
   -5.3019  -24.0415   45.8747 C   0  0  0  1  0  0
   -5.7380  -21.6195   45.2108 C   0  0  0  1  0  0
   -5.9729  -25.0885   51.7049 C   0  0  0  1  0  0
   -7.2568  -25.5992   51.3894 C   0  0  0  1  0  0
   -5.0991  -25.9269   52.4427 C   0  0  0  1  0  0
   -7.6340  -26.9010   51.7617 C   0  0  0  1  0  0
   -5.4669  -27.2333   52.7971 C   0  0  0  1  0  0
   -6.7335  -27.7297   52.4516 C   0  0  0  1  0  0
   -7.1156  -29.1449   52.8158 C   0  0  0  1  0  0
   -7.6641  -29.2763   54.2277 C   0  0  0  1  0  0
   -6.2758  -30.2917   52.2718 C   0  0  0  1  0  0
   -7.6671  -30.0627   51.7343 C   0  0  0  1  0  0
   -8.8513  -29.4505   54.3866 O   0  0  0  1  0  0
   -6.8228  -29.2009   55.2580 O   0  0  0  1  0  0
   -1.2114  -28.8148   52.1077 H   0  0
   -1.9167  -29.0735   47.8569 H   0  0
   -2.4020  -26.6319   47.7859 H   0  0
   -1.6399  -24.3918   51.6208 H   0  0
   -0.0615  -25.0981   51.9096 H   0  0
   -1.0411  -24.5319   53.3272 H   0  0
   -1.8185  -24.2803   50.3507 H   0  0
   -2.5190  -22.4657   50.6591 H   0  0
   -3.9217  -21.4165   50.5170 H   0  0
   -5.6565  -21.8913   48.5172 H   0  0
   -5.8686  -23.6103   48.2525 H   0  0
   -1.3587  -22.1690   49.1148 H   0  0
   -3.5988  -23.9693   52.0677 H   0  0
   -4.4580  -22.4815   52.5047 H   0  0
   -7.2601  -23.4248   50.0768 H   0  0
   -6.4375  -21.9794   50.6907 H   0  0
   -3.4223  -21.4200   44.6602 H   0  0
   -5.7682  -22.4291   47.1844 H   0  0
   -0.0388  -21.1281   47.2996 H   0  0
   -1.0679  -20.7493   45.0638 H   0  0
   -4.9728  -24.6597   46.7100 H   0  0
   -4.6449  -24.2218   45.0239 H   0  0
   -6.3336  -24.2765   45.6130 H   0  0
   -5.1035  -21.6790   44.3265 H   0  0
   -5.7115  -20.6004   45.5965 H   0  0
   -6.7608  -21.9004   44.9598 H   0  0
   -7.9644  -24.9711   50.8483 H   0  0
   -4.1213  -25.5483   52.7406 H   0  0
   -8.6296  -27.2692   51.5140 H   0  0
   -4.7664  -27.8654   53.3429 H   0  0
   -6.2460  -31.1305   52.9672 H   0  0
   -5.5130  -29.9348   51.5798 H   0  0
   -7.6466  -29.5843   50.7551 H   0  0
   -8.3797  -30.7788   52.1435 H   0  0
   -6.3367  -28.2768   55.1468 H   0  0
  1  2  1  0
  2  3  2  0
  2  4  1  0
  3  5  1  0
  4  6  2  0
  5  7  1  0
  5  8  2  0
  6  8  1  0
  7  9  1  0
  8 10  1  0
 10 11  1  0
 11 12  2  0
 11 13  1  0
 13 14  1  0
 13 15  1  0
 13 16  1  0
 14 17  2  0
 14 18  1  0
 15 19  1  0
 16 20  1  0
 17 21  1  0
 17 22  1  0
 18 23  2  0
 19 24  1  0
 20 24  1  0
 21 25  2  0
 22 26  1  0
 22 27  1  0
 23 25  1  0
 24 28  1  0
 28 29  2  0
 28 30  1  0
 29 31  1  0
 30 32  2  0
 31 33  2  0
 32 33  1  0
 33 34  1  0
 34 35  1  0
 34 36  1  0
 34 37  1  0
 35 38  2  0
 35 39  1  0
 36 37  1  0
  3 40  1  0
  4 41  1  0
  6 42  1  0
  9 43  1  0
  9 44  1  0
  9 45  1  0
 10 46  1  0
 15 47  1  0
 15 48  1  0
 16 49  1  0
 16 50  1  0
 18 51  1  0
 19 52  1  0
 19 53  1  0
 20 54  1  0
 20 55  1  0
 21 56  1  0
 22 57  1  0
 23 58  1  0
 25 59  1  0
 26 60  1  0
 26 61  1  0
 26 62  1  0
 27 63  1  0
 27 64  1  0
 27 65  1  0
 29 66  1  0
 30 67  1  0
 31 68  1  0
 32 69  1  0
 36 70  1  0
 36 71  1  0
 37 72  1  0
 37 73  1  0
 39 74  1  0
M  END
> <Name>
4

> <AbsoluteEnergy>
78.0787

> <Clean Energy>
120.266

> <Column 1>
4

> <ConfNumber>
78

> <Filter_Pass>
Failed

> <IC50_nM>
34.99

> <LogP>
6.77

> <MOL_NUMBER>
2

> <QSAR_Score_pIC50>
7.456

> <RelativeEnergy>
14.2709

> <SMILES>
COc1cc(Cl)ccc1NC(=O)C1(c2ccccc2C(C)C)CCN(c2ccc(C3(C(=O)O)CC3)cc2)CC1

> <Toxicity_Alerts>
DILI, Basic N (hERG Warning)

> <Type>
Analog

> <POSE_NUMBER>
6

> <LibDockScore>
119.5922

> <HotSpots>
-2.53,-21.12,45.98,A,16,25
-6.33,-26.32,51.98,A,57,29
-6.53,-30.72,51.78,A,56,37

$$$$
4
  SciTegic05082609073D

 74 78  0  0  0  0            999 V2000
   -8.0174  -21.6587   50.8065 Cl  0  0  0  1  0  0
   -6.5663  -22.5399   50.5741 C   0  0  0  1  0  0
   -6.4727  -23.8713   51.0119 C   0  0  0  1  0  0
   -5.4677  -21.9330   49.9452 C   0  0  0  1  0  0
   -5.2854  -24.6137   50.8280 C   0  0  0  1  0  0
   -4.2778  -22.6531   49.7629 C   0  0  0  1  0  0
   -5.1780  -25.8849   51.2219 O   0  0  0  1  0  0
   -4.1675  -23.9871   50.2152 C   0  0  0  1  0  0
   -6.2294  -26.5738   51.9073 C   0  0  0  1  0  0
   -2.9917  -24.7116   50.0802 N   0  0  0  1  0  0
   -1.6946  -24.2503   50.2297 C   0  0  0  1  0  0
   -1.4549  -23.0634   50.1523 O   0  0  0  1  0  0
   -0.5389  -25.2324   50.5047 C   0  0  0  1  0  0
    0.7886  -24.6268   50.0215 C   0  0  0  1  0  0
   -0.6575  -26.6674   49.8929 C   0  0  0  1  0  0
   -0.5633  -25.4753   52.0408 C   0  0  0  1  0  0
    1.0583  -24.3647   48.6371 C   0  0  0  1  0  0
    1.8031  -24.3106   50.9624 C   0  0  0  1  0  0
   -1.6792  -27.6740   50.4960 C   0  0  0  1  0  0
   -1.8525  -26.1123   52.5652 C   0  0  0  1  0  0
    2.3010  -23.8013   48.2656 C   0  0  0  1  0  0
    0.0802  -24.6573   47.5185 C   0  0  0  1  0  0
    3.0298  -23.7617   50.5711 C   0  0  0  1  0  0
   -2.2116  -27.3841   51.8711 N   0  0  0  1  0  0
    3.2788  -23.5050   49.2214 C   0  0  0  1  0  0
    0.6732  -25.6194   46.4726 C   0  0  0  1  0  0
   -0.4419  -23.3663   46.8576 C   0  0  0  1  0  0
   -3.0582  -28.2858   52.5137 C   0  0  0  1  0  0
   -3.9207  -27.8423   53.5429 C   0  0  0  1  0  0
   -3.0739  -29.6575   52.1716 C   0  0  0  1  0  0
   -4.6857  -28.7579   54.2851 C   0  0  0  1  0  0
   -3.8448  -30.5719   52.9088 C   0  0  0  1  0  0
   -4.6161  -30.1346   54.0001 C   0  0  0  1  0  0
   -5.3405  -31.1471   54.8662 C   0  0  0  1  0  0
   -4.4907  -31.7019   56.0243 C   0  0  0  1  0  0
   -6.8404  -31.0027   55.0878 C   0  0  0  1  0  0
   -6.3193  -32.0890   54.1771 C   0  0  0  1  0  0
   -4.9247  -32.6199   56.6870 O   0  0  0  1  0  0
   -3.2863  -31.1832   56.3010 O   0  0  0  1  0  0
   -7.3282  -24.3379   51.5003 H   0  0
   -5.5393  -20.9021   49.5985 H   0  0
   -3.4303  -22.1791   49.2677 H   0  0
   -7.0864  -26.4756   51.2409 H   0  0
   -6.4343  -25.9455   52.7741 H   0  0
   -6.0104  -27.6083   52.1719 H   0  0
   -3.0999  -25.7467   49.8318 H   0  0
   -0.8792  -26.5621   48.8309 H   0  0
    0.3285  -27.1308   49.9282 H   0  0
   -0.4132  -24.5230   52.5494 H   0  0
    0.2763  -26.1173   52.3073 H   0  0
    1.6217  -24.5007   52.0203 H   0  0
   -1.2190  -28.6619   50.5124 H   0  0
   -2.5261  -27.7521   49.8142 H   0  0
   -1.7397  -26.3127   53.6307 H   0  0
   -2.6719  -25.4034   52.4464 H   0  0
    2.5009  -23.5939   47.2144 H   0  0
   -0.7739  -25.1582   47.9742 H   0  0
    3.7896  -23.5350   51.3190 H   0  0
    4.2319  -23.0751   48.9134 H   0  0
    0.9433  -26.5490   46.9736 H   0  0
    1.5747  -25.1665   46.0599 H   0  0
   -0.0479  -25.8146   45.6789 H   0  0
    0.4098  -22.8129   46.4621 H   0  0
   -0.9312  -22.7618   47.6213 H   0  0
   -1.1430  -23.6020   46.0570 H   0  0
   -3.9929  -26.7772   53.7631 H   0  0
   -2.4816  -30.0094   51.3269 H   0  0
   -5.3353  -28.4009   55.0843 H   0  0
   -3.8450  -31.6265   52.6332 H   0  0
   -7.2493  -30.1654   54.5222 H   0  0
   -7.1407  -31.4001   56.0573 H   0  0
   -6.3427  -33.0653   54.6612 H   0  0
   -6.4497  -31.8302   53.1263 H   0  0
   -3.4734  -30.1607   56.4493 H   0  0
  1  2  1  0
  2  3  2  0
  2  4  1  0
  3  5  1  0
  4  6  2  0
  5  7  1  0
  5  8  2  0
  6  8  1  0
  7  9  1  0
  8 10  1  0
 10 11  1  0
 11 12  2  0
 11 13  1  0
 13 14  1  0
 13 15  1  0
 13 16  1  0
 14 17  2  0
 14 18  1  0
 15 19  1  0
 16 20  1  0
 17 21  1  0
 17 22  1  0
 18 23  2  0
 19 24  1  0
 20 24  1  0
 21 25  2  0
 22 26  1  0
 22 27  1  0
 23 25  1  0
 24 28  1  0
 28 29  2  0
 28 30  1  0
 29 31  1  0
 30 32  2  0
 31 33  2  0
 32 33  1  0
 33 34  1  0
 34 35  1  0
 34 36  1  0
 34 37  1  0
 35 38  2  0
 35 39  1  0
 36 37  1  0
  3 40  1  0
  4 41  1  0
  6 42  1  0
  9 43  1  0
  9 44  1  0
  9 45  1  0
 10 46  1  0
 15 47  1  0
 15 48  1  0
 16 49  1  0
 16 50  1  0
 18 51  1  0
 19 52  1  0
 19 53  1  0
 20 54  1  0
 20 55  1  0
 21 56  1  0
 22 57  1  0
 23 58  1  0
 25 59  1  0
 26 60  1  0
 26 61  1  0
 26 62  1  0
 27 63  1  0
 27 64  1  0
 27 65  1  0
 29 66  1  0
 30 67  1  0
 31 68  1  0
 32 69  1  0
 36 70  1  0
 36 71  1  0
 37 72  1  0
 37 73  1  0
 39 74  1  0
M  END
> <Name>
4

> <AbsoluteEnergy>
72.3116

> <Clean Energy>
120.266

> <Column 1>
4

> <ConfNumber>
33

> <Filter_Pass>
Failed

> <IC50_nM>
34.99

> <LogP>
6.77

> <MOL_NUMBER>
2

> <QSAR_Score_pIC50>
7.456

> <RelativeEnergy>
8.50387

> <SMILES>
COc1cc(Cl)ccc1NC(=O)C1(c2ccccc2C(C)C)CCN(c2ccc(C3(C(=O)O)CC3)cc2)CC1

> <Toxicity_Alerts>
DILI, Basic N (hERG Warning)

> <Type>
Analog

> <POSE_NUMBER>
7

> <LibDockScore>
109.0955

> <HotSpots>
-6.53,-23.32,50.38,A,45,3
3.07,-24.52,50.38,A,43,23
0.27,-24.92,46.38,A,19,26

$$$$
4
  SciTegic05082609073D

 74 78  0  0  0  0            999 V2000
    5.3094  -22.9325   50.2941 Cl  0  0  0  1  0  0
    3.7595  -23.6211   50.0382 C   0  0  0  1  0  0
    3.0796  -24.2423   51.0984 C   0  0  0  1  0  0
    3.1691  -23.5677   48.7673 C   0  0  0  1  0  0
    1.7994  -24.8153   50.9075 C   0  0  0  1  0  0
    1.8985  -24.1237   48.5617 C   0  0  0  1  0  0
    1.1542  -25.4405   51.8922 O   0  0  0  1  0  0
    1.1951  -24.7354   49.6231 C   0  0  0  1  0  0
    1.7105  -25.6079   53.1992 C   0  0  0  1  0  0
   -0.0656  -25.2515   49.3477 N   0  0  0  1  0  0
   -1.2637  -24.8677   49.9394 C   0  0  0  1  0  0
   -1.3145  -24.7097   51.1394 O   0  0  0  1  0  0
   -2.5325  -24.6483   49.0759 C   0  0  0  1  0  0
   -2.4169  -23.4435   48.1218 C   0  0  0  1  0  0
   -3.7510  -24.4448   50.0459 C   0  0  0  1  0  0
   -2.7363  -26.0003   48.3149 C   0  0  0  1  0  0
   -3.4819  -23.0065   47.2615 C   0  0  0  1  0  0
   -1.2046  -22.7025   48.0805 C   0  0  0  1  0  0
   -4.5818  -25.7130   50.3628 C   0  0  0  1  0  0
   -2.8166  -27.2015   49.2776 C   0  0  0  1  0  0
   -3.2522  -21.9488   46.3519 C   0  0  0  1  0  0
   -4.8754  -23.5962   47.2542 C   0  0  0  1  0  0
   -1.0085  -21.6427   47.1861 C   0  0  0  1  0  0
   -3.7906  -26.9891   50.3933 N   0  0  0  1  0  0
   -2.0290  -21.2744   46.3095 C   0  0  0  1  0  0
   -5.9278  -22.6216   47.8213 C   0  0  0  1  0  0
   -5.2770  -24.0909   45.8511 C   0  0  0  1  0  0
   -3.9640  -27.9580   51.3904 C   0  0  0  1  0  0
   -3.0395  -29.0205   51.5409 C   0  0  0  1  0  0
   -5.0679  -27.9157   52.2779 C   0  0  0  1  0  0
   -3.1992  -29.9881   52.5465 C   0  0  0  1  0  0
   -5.2237  -28.8794   53.2881 C   0  0  0  1  0  0
   -4.2891  -29.9180   53.4290 C   0  0  0  1  0  0
   -4.4585  -30.9485   54.5204 C   0  0  0  1  0  0
   -4.8222  -32.3284   53.9904 C   0  0  0  1  0  0
   -3.5985  -30.8596   55.7726 C   0  0  0  1  0  0
   -5.0669  -30.5185   55.8466 C   0  0  0  1  0  0
   -4.6525  -33.2968   54.6961 O   0  0  0  1  0  0
   -5.3252  -32.4500   52.7621 O   0  0  0  1  0  0
    3.5448  -24.2839   52.0833 H   0  0
    3.6976  -23.0943   47.9399 H   0  0
    1.4477  -24.0834   47.5701 H   0  0
    1.9494  -24.5923   53.5148 H   0  0
    2.6609  -26.1097   53.0176 H   0  0
    1.0760  -26.1381   53.9094 H   0  0
   -0.1195  -26.0211   48.6062 H   0  0
   -4.4158  -23.6953   49.6166 H   0  0
   -3.3819  -24.0306   50.9841 H   0  0
   -1.9056  -26.1518   47.6256 H   0  0
   -3.6570  -25.9477   47.7339 H   0  0
   -0.4011  -22.9678   48.7676 H   0  0
   -5.0673  -25.5812   51.3298 H   0  0
   -5.3714  -25.8110   49.6178 H   0  0
   -1.8291  -27.3850   49.7010 H   0  0
   -3.1108  -28.0879   48.7156 H   0  0
   -4.0475  -21.6526   45.6679 H   0  0
   -4.8483  -24.4604   47.9179 H   0  0
   -0.0596  -21.1064   47.1751 H   0  0
   -1.8733  -20.4655   45.5957 H   0  0
   -5.9123  -21.7138   47.2181 H   0  0
   -5.6435  -22.3690   48.8428 H   0  0
   -6.9204  -23.0716   47.8040 H   0  0
   -4.5595  -24.8467   45.5316 H   0  0
   -5.2340  -23.2483   45.1610 H   0  0
   -6.2826  -24.5112   45.8683 H   0  0
   -2.1881  -29.0886   50.8637 H   0  0
   -5.8083  -27.1224   52.1751 H   0  0
   -2.4743  -30.7965   52.6422 H   0  0
   -6.0749  -28.8206   53.9664 H   0  0
   -2.9771  -29.9641   55.7683 H   0  0
   -3.3932  -31.8466   56.1869 H   0  0
   -5.6444  -31.3232   56.3015 H   0  0
   -5.2286  -29.4411   55.8813 H   0  0
   -4.6133  -32.0007   52.1345 H   0  0
  1  2  1  0
  2  3  2  0
  2  4  1  0
  3  5  1  0
  4  6  2  0
  5  7  1  0
  5  8  2  0
  6  8  1  0
  7  9  1  0
  8 10  1  0
 10 11  1  0
 11 12  2  0
 11 13  1  0
 13 14  1  0
 13 15  1  0
 13 16  1  0
 14 17  2  0
 14 18  1  0
 15 19  1  0
 16 20  1  0
 17 21  1  0
 17 22  1  0
 18 23  2  0
 19 24  1  0
 20 24  1  0
 21 25  2  0
 22 26  1  0
 22 27  1  0
 23 25  1  0
 24 28  1  0
 28 29  2  0
 28 30  1  0
 29 31  1  0
 30 32  2  0
 31 33  2  0
 32 33  1  0
 33 34  1  0
 34 35  1  0
 34 36  1  0
 34 37  1  0
 35 38  2  0
 35 39  1  0
 36 37  1  0
  3 40  1  0
  4 41  1  0
  6 42  1  0
  9 43  1  0
  9 44  1  0
  9 45  1  0
 10 46  1  0
 15 47  1  0
 15 48  1  0
 16 49  1  0
 16 50  1  0
 18 51  1  0
 19 52  1  0
 19 53  1  0
 20 54  1  0
 20 55  1  0
 21 56  1  0
 22 57  1  0
 23 58  1  0
 25 59  1  0
 26 60  1  0
 26 61  1  0
 26 62  1  0
 27 63  1  0
 27 64  1  0
 27 65  1  0
 29 66  1  0
 30 67  1  0
 31 68  1  0
 32 69  1  0
 36 70  1  0
 36 71  1  0
 37 72  1  0
 37 73  1  0
 39 74  1  0
M  END
> <Name>
4

> <AbsoluteEnergy>
69.827

> <Clean Energy>
120.266

> <Column 1>
4

> <ConfNumber>
19

> <Filter_Pass>
Failed

> <IC50_nM>
34.99

> <LogP>
6.77

> <MOL_NUMBER>
2

> <QSAR_Score_pIC50>
7.456

> <RelativeEnergy>
6.01926

> <SMILES>
COc1cc(Cl)ccc1NC(=O)C1(c2ccccc2C(C)C)CCN(c2ccc(C3(C(=O)O)CC3)cc2)CC1

> <Toxicity_Alerts>
DILI, Basic N (hERG Warning)

> <Type>
Analog

> <POSE_NUMBER>
8

> <LibDockScore>
109.0075

> <HotSpots>
2.27,-24.92,52.19,A,58,3
-2.53,-21.12,45.98,A,16,25
-3.33,-32.52,54.19,P,48,38

$$$$
4
  SciTegic05082609073D

 74 78  0  0  0  0            999 V2000
   -8.0951  -21.8114   50.7854 Cl  0  0  0  1  0  0
   -6.6199  -22.6223   50.4689 C   0  0  0  1  0  0
   -5.7092  -22.0973   49.5368 C   0  0  0  1  0  0
   -6.3156  -23.8140   51.1380 C   0  0  0  1  0  0
   -4.4903  -22.7422   49.2399 C   0  0  0  1  0  0
   -5.1129  -24.4681   50.8678 C   0  0  0  1  0  0
   -3.7613  -22.1121   48.3108 O   0  0  0  1  0  0
   -4.1830  -23.9638   49.9290 C   0  0  0  1  0  0
   -2.4591  -22.5022   47.8662 C   0  0  0  1  0  0
   -3.0112  -24.6835   49.7368 N   0  0  0  1  0  0
   -2.8985  -26.0687   49.7138 C   0  0  0  1  0  0
   -3.8846  -26.7714   49.6663 O   0  0  0  1  0  0
   -1.5062  -26.7211   49.7404 C   0  0  0  1  0  0
   -0.6289  -26.1048   48.6410 C   0  0  0  1  0  0
   -0.9743  -26.4814   51.1940 C   0  0  0  1  0  0
   -1.5601  -28.2854   49.5790 C   0  0  0  1  0  0
   -1.1099  -25.8699   47.3097 C   0  0  0  1  0  0
    0.7067  -25.7293   48.9389 C   0  0  0  1  0  0
   -1.9255  -27.0219   52.2897 C   0  0  0  1  0  0
   -1.7725  -29.0918   50.8863 C   0  0  0  1  0  0
   -0.2750  -25.2145   46.3785 C   0  0  0  1  0  0
   -2.4804  -26.2796   46.8170 C   0  0  0  1  0  0
    1.5219  -25.0959   47.9894 C   0  0  0  1  0  0
   -2.5629  -28.3114   51.8774 N   0  0  0  1  0  0
    1.0281  -24.8308   46.7103 C   0  0  0  1  0  0
   -2.3905  -27.2827   45.6524 C   0  0  0  1  0  0
   -3.3668  -25.0721   46.4534 C   0  0  0  1  0  0
   -3.8139  -28.7308   52.3334 C   0  0  0  1  0  0
   -4.7272  -27.8046   52.8864 C   0  0  0  1  0  0
   -4.2134  -30.0870   52.2421 C   0  0  0  1  0  0
   -6.0163  -28.1981   53.2706 C   0  0  0  1  0  0
   -5.5053  -30.4836   52.6331 C   0  0  0  1  0  0
   -6.4202  -29.5364   53.1272 C   0  0  0  1  0  0
   -7.8316  -29.9323   53.4989 C   0  0  0  1  0  0
   -8.0930  -29.9200   55.0004 C   0  0  0  1  0  0
   -8.9506  -29.4077   52.6108 C   0  0  0  1  0  0
   -8.6197  -30.8789   52.6052 C   0  0  0  1  0  0
   -8.1403  -28.8466   55.5561 O   0  0  0  1  0  0
   -8.2695  -31.0617   55.6700 O   0  0  0  1  0  0
   -5.9516  -21.1643   49.0281 H   0  0
   -7.0138  -24.2282   51.8654 H   0  0
   -4.8836  -25.3940   51.3953 H   0  0
   -2.6107  -23.5370   47.5592 H   0  0
   -1.8915  -22.5458   48.7957 H   0  0
   -1.9995  -21.8789   47.0992 H   0  0
   -2.1128  -24.1203   49.5933 H   0  0
   -0.8310  -25.4118   51.3477 H   0  0
   -0.0032  -26.9650   51.2998 H   0  0
   -0.6324  -28.6194   49.1143 H   0  0
   -2.3625  -28.5352   48.8849 H   0  0
    1.1091  -25.9383   49.9301 H   0  0
   -2.7046  -26.2850   52.4848 H   0  0
   -1.3607  -27.1804   53.2084 H   0  0
   -2.3004  -30.0172   50.6561 H   0  0
   -0.8030  -29.3406   51.3179 H   0  0
   -0.6547  -25.0030   45.3789 H   0  0
   -2.9677  -26.7837   47.6516 H   0  0
    2.5411  -24.8105   48.2500 H   0  0
    1.6552  -24.3274   45.9744 H   0  0
   -1.8478  -28.1637   45.9951 H   0  0
   -1.8338  -26.8190   44.8380 H   0  0
   -3.3875  -27.5640   45.3134 H   0  0
   -2.8567  -24.4985   45.6795 H   0  0
   -3.4691  -24.4478   47.3410 H   0  0
   -4.3455  -25.3995   46.1026 H   0  0
   -4.4235  -26.7658   53.0164 H   0  0
   -3.5121  -30.8313   51.8648 H   0  0
   -6.7082  -27.4633   53.6822 H   0  0
   -5.7988  -31.5303   52.5527 H   0  0
   -8.5574  -28.9032   51.7282 H   0  0
   -9.8528  -29.1999   53.1862 H   0  0
   -9.3457  -31.4571   53.1769 H   0  0
   -8.0491  -31.1601   51.7201 H   0  0
   -7.4068  -31.6221   55.4600 H   0  0
  1  2  1  0
  2  3  2  0
  2  4  1  0
  3  5  1  0
  4  6  2  0
  5  7  1  0
  5  8  2  0
  6  8  1  0
  7  9  1  0
  8 10  1  0
 10 11  1  0
 11 12  2  0
 11 13  1  0
 13 14  1  0
 13 15  1  0
 13 16  1  0
 14 17  2  0
 14 18  1  0
 15 19  1  0
 16 20  1  0
 17 21  1  0
 17 22  1  0
 18 23  2  0
 19 24  1  0
 20 24  1  0
 21 25  2  0
 22 26  1  0
 22 27  1  0
 23 25  1  0
 24 28  1  0
 28 29  2  0
 28 30  1  0
 29 31  1  0
 30 32  2  0
 31 33  2  0
 32 33  1  0
 33 34  1  0
 34 35  1  0
 34 36  1  0
 34 37  1  0
 35 38  2  0
 35 39  1  0
 36 37  1  0
  3 40  1  0
  4 41  1  0
  6 42  1  0
  9 43  1  0
  9 44  1  0
  9 45  1  0
 10 46  1  0
 15 47  1  0
 15 48  1  0
 16 49  1  0
 16 50  1  0
 18 51  1  0
 19 52  1  0
 19 53  1  0
 20 54  1  0
 20 55  1  0
 21 56  1  0
 22 57  1  0
 23 58  1  0
 25 59  1  0
 26 60  1  0
 26 61  1  0
 26 62  1  0
 27 63  1  0
 27 64  1  0
 27 65  1  0
 29 66  1  0
 30 67  1  0
 31 68  1  0
 32 69  1  0
 36 70  1  0
 36 71  1  0
 37 72  1  0
 37 73  1  0
 39 74  1  0
M  END
> <Name>
4

> <AbsoluteEnergy>
73.2685

> <Clean Energy>
120.266

> <Column 1>
4

> <ConfNumber>
39

> <Filter_Pass>
Failed

> <IC50_nM>
34.99

> <LogP>
6.77

> <MOL_NUMBER>
2

> <QSAR_Score_pIC50>
7.456

> <RelativeEnergy>
9.4607

> <SMILES>
COc1cc(Cl)ccc1NC(=O)C1(c2ccccc2C(C)C)CCN(c2ccc(C3(C(=O)O)CC3)cc2)CC1

> <Toxicity_Alerts>
DILI, Basic N (hERG Warning)

> <Type>
Analog

> <POSE_NUMBER>
9

> <LibDockScore>
99.3497

> <HotSpots>
-2.53,-22.32,48.19,A,29,9
0.27,-24.92,46.38,A,19,25
-6.53,-30.72,51.78,A,56,32

$$$$
4
  SciTegic05082609073D

 74 78  0  0  0  0            999 V2000
   -1.6897  -20.1195   43.3610 Cl  0  0  0  1  0  0
   -2.1119  -20.9476   44.8028 C   0  0  0  1  0  0
   -3.4613  -21.1834   45.1115 C   0  0  0  1  0  0
   -1.1102  -21.3901   45.6769 C   0  0  0  1  0  0
   -3.8282  -21.8583   46.3010 C   0  0  0  1  0  0
   -1.4558  -22.0652   46.8566 C   0  0  0  1  0  0
   -5.1022  -22.0926   46.6154 O   0  0  0  1  0  0
   -2.8109  -22.2967   47.1930 C   0  0  0  1  0  0
   -6.1927  -21.6660   45.7929 C   0  0  0  1  0  0
   -3.1666  -22.9566   48.3707 N   0  0  0  1  0  0
   -2.4135  -23.0688   49.5314 C   0  0  0  1  0  0
   -1.6908  -22.1601   49.8778 O   0  0  0  1  0  0
   -2.4890  -24.3448   50.3941 C   0  0  0  1  0  0
   -1.2547  -24.4396   51.3076 C   0  0  0  1  0  0
   -2.6503  -25.6481   49.5581 C   0  0  0  1  0  0
   -3.8483  -24.2806   51.1532 C   0  0  0  1  0  0
    0.0841  -24.4419   50.7942 C   0  0  0  1  0  0
   -1.4194  -24.5241   52.7139 C   0  0  0  1  0  0
   -2.6880  -26.9165   50.4211 C   0  0  0  1  0  0
   -4.2876  -25.5433   51.9419 C   0  0  0  1  0  0
    1.1701  -24.6151   51.6827 C   0  0  0  1  0  0
    0.4254  -24.2615   49.3317 C   0  0  0  1  0  0
   -0.3278  -24.6820   53.5774 C   0  0  0  1  0  0
   -3.6205  -26.8461   51.5912 N   0  0  0  1  0  0
    0.9684  -24.7385   53.0616 C   0  0  0  1  0  0
    0.9770  -25.5600   48.7125 C   0  0  0  1  0  0
    1.3856  -23.0779   49.0998 C   0  0  0  1  0  0
   -3.8579  -27.9890   52.3693 C   0  0  0  1  0  0
   -3.0335  -29.1371   52.2579 C   0  0  0  1  0  0
   -4.9270  -28.0348   53.2987 C   0  0  0  1  0  0
   -3.2618  -30.2755   53.0488 C   0  0  0  1  0  0
   -5.1542  -29.1723   54.0894 C   0  0  0  1  0  0
   -4.3209  -30.2959   53.9710 C   0  0  0  1  0  0
   -4.5603  -31.5136   54.8322 C   0  0  0  1  0  0
   -3.8415  -31.4356   56.1689 C   0  0  0  1  0  0
   -4.7254  -32.8751   54.1753 C   0  0  0  1  0  0
   -5.9208  -32.1930   54.7935 C   0  0  0  1  0  0
   -2.8560  -32.1127   56.3492 O   0  0  0  1  0  0
   -4.3154  -30.6178   57.1072 O   0  0  0  1  0  0
   -4.2370  -20.8422   44.4260 H   0  0
   -0.0617  -21.2095   45.4399 H   0  0
   -0.6692  -22.4168   47.5242 H   0  0
   -5.9763  -22.1066   44.8197 H   0  0
   -6.0402  -20.5916   45.6901 H   0  0
   -7.1837  -21.9228   46.1672 H   0  0
   -4.1269  -23.4285   48.3797 H   0  0
   -1.8209  -25.7242   48.8550 H   0  0
   -3.5725  -25.5866   48.9803 H   0  0
   -3.8128  -23.4407   51.8471 H   0  0
   -4.6311  -24.0388   50.4343 H   0  0
   -2.4233  -24.4645   53.1343 H   0  0
   -2.9792  -27.7588   49.7935 H   0  0
   -1.6826  -27.1213   50.7888 H   0  0
   -4.1295  -25.3561   53.0040 H   0  0
   -5.3632  -25.6688   51.8180 H   0  0
    2.1845  -24.6532   51.2856 H   0  0
   -0.5067  -24.0217   48.8200 H   0  0
   -0.4904  -24.7608   54.6523 H   0  0
    1.8184  -24.8780   53.7295 H   0  0
    0.2244  -26.3414   48.8176 H   0  0
    1.8713  -25.8538   49.2620 H   0  0
    1.2162  -25.4085   47.6599 H   0  0
    2.2979  -23.2605   49.6677 H   0  0
    0.9111  -22.1725   49.4783 H   0  0
    1.6150  -22.9700   48.0397 H   0  0
   -2.2080  -29.1365   51.5461 H   0  0
   -5.5845  -27.1715   53.4013 H   0  0
   -2.6144  -31.1464   52.9463 H   0  0
   -5.9817  -29.1832   54.7988 H   0  0
   -4.3452  -33.6748   54.8109 H   0  0
   -4.7342  -32.7957   53.0882 H   0  0
   -6.5677  -31.7502   54.0362 H   0  0
   -6.1776  -32.6280   55.7594 H   0  0
   -5.3118  -30.9151   57.2529 H   0  0
  1  2  1  0
  2  3  2  0
  2  4  1  0
  3  5  1  0
  4  6  2  0
  5  7  1  0
  5  8  2  0
  6  8  1  0
  7  9  1  0
  8 10  1  0
 10 11  1  0
 11 12  2  0
 11 13  1  0
 13 14  1  0
 13 15  1  0
 13 16  1  0
 14 17  2  0
 14 18  1  0
 15 19  1  0
 16 20  1  0
 17 21  1  0
 17 22  1  0
 18 23  2  0
 19 24  1  0
 20 24  1  0
 21 25  2  0
 22 26  1  0
 22 27  1  0
 23 25  1  0
 24 28  1  0
 28 29  2  0
 28 30  1  0
 29 31  1  0
 30 32  2  0
 31 33  2  0
 32 33  1  0
 33 34  1  0
 34 35  1  0
 34 36  1  0
 34 37  1  0
 35 38  2  0
 35 39  1  0
 36 37  1  0
  3 40  1  0
  4 41  1  0
  6 42  1  0
  9 43  1  0
  9 44  1  0
  9 45  1  0
 10 46  1  0
 15 47  1  0
 15 48  1  0
 16 49  1  0
 16 50  1  0
 18 51  1  0
 19 52  1  0
 19 53  1  0
 20 54  1  0
 20 55  1  0
 21 56  1  0
 22 57  1  0
 23 58  1  0
 25 59  1  0
 26 60  1  0
 26 61  1  0
 26 62  1  0
 27 63  1  0
 27 64  1  0
 27 65  1  0
 29 66  1  0
 30 67  1  0
 31 68  1  0
 32 69  1  0
 36 70  1  0
 36 71  1  0
 37 72  1  0
 37 73  1  0
 39 74  1  0
M  END
> <Name>
4

> <AbsoluteEnergy>
66.3169

> <Clean Energy>
120.266

> <Column 1>
4

> <ConfNumber>
11

> <Filter_Pass>
Failed

> <IC50_nM>
34.99

> <LogP>
6.77

> <MOL_NUMBER>
2

> <QSAR_Score_pIC50>
7.456

> <RelativeEnergy>
2.50913

> <SMILES>
COc1cc(Cl)ccc1NC(=O)C1(c2ccccc2C(C)C)CCN(c2ccc(C3(C(=O)O)CC3)cc2)CC1

> <Toxicity_Alerts>
DILI, Basic N (hERG Warning)

> <Type>
Analog

> <POSE_NUMBER>
10

> <LibDockScore>
98.5338

> <HotSpots>
-4.93,-21.52,45.19,A,11,3
0.87,-24.32,52.78,A,63,25
-4.13,-30.52,57.38,P,71,39

$$$$
4
  SciTegic05082609073D

 74 78  0  0  0  0            999 V2000
  -12.2230  -30.1223   52.2916 Cl  0  0  0  1  0  0
  -10.5483  -29.7530   52.3077 C   0  0  0  1  0  0
   -9.7547  -30.1164   53.4078 C   0  0  0  1  0  0
   -9.9652  -29.0896   51.2193 C   0  0  0  1  0  0
   -8.3695  -29.8217   53.4399 C   0  0  0  1  0  0
   -8.5991  -28.7788   51.2401 C   0  0  0  1  0  0
   -7.6006  -30.1995   54.4575 O   0  0  0  1  0  0
   -7.7887  -29.1204   52.3467 C   0  0  0  1  0  0
   -8.1226  -30.7726   55.6598 C   0  0  0  1  0  0
   -6.4468  -28.7471   52.2809 N   0  0  0  1  0  0
   -5.6576  -28.2211   53.2943 C   0  0  0  1  0  0
   -5.9758  -28.3334   54.4559 O   0  0  0  1  0  0
   -4.3765  -27.4532   52.9486 C   0  0  0  1  0  0
   -3.4384  -28.2353   51.9978 C   0  0  0  1  0  0
   -4.9372  -26.1028   52.3608 C   0  0  0  1  0  0
   -3.6090  -26.9437   54.2032 C   0  0  0  1  0  0
   -2.7266  -29.4507   52.3252 C   0  0  0  1  0  0
   -3.2515  -27.7129   50.6875 C   0  0  0  1  0  0
   -3.9588  -24.8979   52.3439 C   0  0  0  1  0  0
   -2.3453  -26.1256   53.8456 C   0  0  0  1  0  0
   -1.8614  -30.0159   51.3553 C   0  0  0  1  0  0
   -2.7692  -30.2445   53.6253 C   0  0  0  1  0  0
   -2.4021  -28.3065   49.7493 C   0  0  0  1  0  0
   -2.5440  -25.2890   52.6214 N   0  0  0  1  0  0
   -1.6980  -29.4588   50.0861 C   0  0  0  1  0  0
   -3.9721  -31.1641   53.8758 C   0  0  0  1  0  0
   -2.3023  -29.4435   54.8580 C   0  0  0  1  0  0
   -1.4722  -24.9441   51.7931 C   0  0  0  1  0  0
   -1.6724  -24.3036   50.5467 C   0  0  0  1  0  0
   -0.1454  -25.2444   52.1824 C   0  0  0  1  0  0
   -0.5869  -23.9886   49.7149 C   0  0  0  1  0  0
    0.9395  -24.9415   51.3441 C   0  0  0  1  0  0
    0.7225  -24.3178   50.1033 C   0  0  0  1  0  0
    1.8811  -24.0105   49.1851 C   0  0  0  1  0  0
    1.6791  -24.5702   47.7862 C   0  0  0  1  0  0
    3.2977  -23.9494   49.7362 C   0  0  0  1  0  0
    2.5959  -22.6759   49.3340 C   0  0  0  1  0  0
    1.7504  -25.7649   47.6121 O   0  0  0  1  0  0
    1.4220  -23.7304   46.7855 O   0  0  0  1  0  0
  -10.2122  -30.6338   54.2510 H   0  0
  -10.5739  -28.8158   50.3576 H   0  0
   -8.1537  -28.2648   50.3883 H   0  0
   -8.7010  -31.6280   55.3108 H   0  0
   -8.8423  -30.0326   56.0099 H   0  0
   -7.3788  -31.0362   56.4117 H   0  0
   -5.9672  -28.8826   51.3341 H   0  0
   -5.8221  -25.8184   52.9301 H   0  0
   -5.2760  -26.2845   51.3408 H   0  0
   -3.3160  -27.7987   54.8125 H   0  0
   -4.2766  -26.3212   54.7989 H   0  0
   -3.7939  -26.8112   50.4032 H   0  0
   -4.0065  -24.4158   51.3675 H   0  0
   -4.2767  -24.1710   53.0913 H   0  0
   -1.5123  -26.8083   53.6781 H   0  0
   -2.0918  -25.4757   54.6831 H   0  0
   -1.3040  -30.9174   51.6096 H   0  0
   -1.9995  -30.9936   53.4397 H   0  0
   -2.2916  -27.8684   48.7574 H   0  0
   -1.0248  -29.9222   49.3649 H   0  0
   -4.0010  -31.8461   53.0260 H   0  0
   -4.8504  -30.5224   53.8064 H   0  0
   -3.9229  -31.6935   54.8273 H   0  0
   -2.9434  -28.5661   54.9432 H   0  0
   -1.2829  -29.1083   54.6666 H   0  0
   -2.3481  -30.0464   55.7649 H   0  0
   -2.6840  -24.0515   50.2285 H   0  0
    0.0371  -25.7178   53.1471 H   0  0
   -0.7605  -23.4863   48.7632 H   0  0
    1.9535  -25.1909   51.6566 H   0  0
    4.0306  -24.2577   48.9906 H   0  0
    3.3110  -24.0772   50.8186 H   0  0
    2.2354  -22.1237   50.2019 H   0  0
    2.9537  -22.3051   48.3735 H   0  0
    2.2216  -23.0499   46.7873 H   0  0
  1  2  1  0
  2  3  2  0
  2  4  1  0
  3  5  1  0
  4  6  2  0
  5  7  1  0
  5  8  2  0
  6  8  1  0
  7  9  1  0
  8 10  1  0
 10 11  1  0
 11 12  2  0
 11 13  1  0
 13 14  1  0
 13 15  1  0
 13 16  1  0
 14 17  2  0
 14 18  1  0
 15 19  1  0
 16 20  1  0
 17 21  1  0
 17 22  1  0
 18 23  2  0
 19 24  1  0
 20 24  1  0
 21 25  2  0
 22 26  1  0
 22 27  1  0
 23 25  1  0
 24 28  1  0
 28 29  2  0
 28 30  1  0
 29 31  1  0
 30 32  2  0
 31 33  2  0
 32 33  1  0
 33 34  1  0
 34 35  1  0
 34 36  1  0
 34 37  1  0
 35 38  2  0
 35 39  1  0
 36 37  1  0
  3 40  1  0
  4 41  1  0
  6 42  1  0
  9 43  1  0
  9 44  1  0
  9 45  1  0
 10 46  1  0
 15 47  1  0
 15 48  1  0
 16 49  1  0
 16 50  1  0
 18 51  1  0
 19 52  1  0
 19 53  1  0
 20 54  1  0
 20 55  1  0
 21 56  1  0
 22 57  1  0
 23 58  1  0
 25 59  1  0
 26 60  1  0
 26 61  1  0
 26 62  1  0
 27 63  1  0
 27 64  1  0
 27 65  1  0
 29 66  1  0
 30 67  1  0
 31 68  1  0
 32 69  1  0
 36 70  1  0
 36 71  1  0
 37 72  1  0
 37 73  1  0
 39 74  1  0
M  END
> <Name>
4

> <AbsoluteEnergy>
79.0242

> <Clean Energy>
120.266

> <Column 1>
4

> <ConfNumber>
84

> <Filter_Pass>
Failed

> <IC50_nM>
34.99

> <LogP>
6.77

> <MOL_NUMBER>
2

> <QSAR_Score_pIC50>
7.456

> <RelativeEnergy>
15.2164

> <SMILES>
COc1cc(Cl)ccc1NC(=O)C1(c2ccccc2C(C)C)CCN(c2ccc(C3(C(=O)O)CC3)cc2)CC1

> <Toxicity_Alerts>
DILI, Basic N (hERG Warning)

> <Type>
Analog

> <POSE_NUMBER>
11

> <LibDockScore>
92.9229

> <HotSpots>
-9.53,-30.12,52.78,A,62,3
-1.93,-29.12,49.19,A,34,25
2.47,-25.32,48.78,P,32,38

$$$$
6
  SciTegic05082609073D

 73 77  0  0  0  0            999 V2000
    0.4904  -23.9676   50.9338 Cl  0  0  0  1  0  0
    0.1594  -23.9799   49.2402 C   0  0  0  1  0  0
   -0.9176  -23.2571   48.6625 C   0  0  0  1  0  0
    1.0043  -24.7450   48.4134 C   0  0  0  1  0  0
   -1.8543  -22.5911   49.4232 N   0  0  0  1  0  0
   -1.0507  -23.2213   47.2580 C   0  0  0  1  0  0
    0.8278  -24.7538   47.0175 C   0  0  0  1  0  0
   -2.4778  -23.0685   50.5701 C   0  0  0  1  0  0
   -0.1890  -23.9714   46.4424 C   0  0  0  1  0  0
    1.7194  -25.5920   46.1618 C   0  0  0  1  0  0
   -2.8728  -22.2273   51.3482 O   0  0  0  1  0  0
   -2.7124  -24.5561   50.9385 C   0  0  0  1  0  0
   -4.2228  -24.8321   51.0487 C   0  0  0  1  0  0
   -1.9334  -24.7393   52.2916 C   0  0  0  1  0  0
   -2.1157  -25.6522   49.9923 C   0  0  0  1  0  0
   -5.1639  -24.3112   50.1021 C   0  0  0  1  0  0
   -4.7284  -25.6375   52.1045 C   0  0  0  1  0  0
   -1.4241  -26.1697   52.6062 C   0  0  0  1  0  0
   -2.4012  -27.0907   50.4571 C   0  0  0  1  0  0
   -6.5358  -24.6194   50.2423 C   0  0  0  1  0  0
   -4.7786  -23.4353   48.9310 C   0  0  0  1  0  0
   -6.0919  -25.9312   52.2235 C   0  0  0  1  0  0
   -2.2078  -27.2458   51.9270 N   0  0  0  1  0  0
   -6.9983  -25.4234   51.2899 C   0  0  0  1  0  0
   -5.5099  -22.0807   48.9591 C   0  0  0  1  0  0
   -4.9780  -24.1589   47.5854 C   0  0  0  1  0  0
   -2.7456  -28.3360   52.6028 C   0  0  0  1  0  0
   -3.7096  -29.1517   51.9684 C   0  0  0  1  0  0
   -2.3596  -28.6499   53.9257 C   0  0  0  1  0  0
   -4.2785  -30.2449   52.6384 C   0  0  0  1  0  0
   -2.9284  -29.7443   54.5965 C   0  0  0  1  0  0
   -3.8939  -30.5411   53.9575 C   0  0  0  1  0  0
   -4.5113  -31.7083   54.6859 C   0  0  0  1  0  0
   -3.8255  -33.0263   54.3614 C   0  0  0  1  0  0
   -6.0089  -31.7214   54.9531 C   0  0  0  1  0  0
   -5.0465  -31.4953   56.0937 C   0  0  0  1  0  0
   -3.0940  -33.5210   55.1868 O   0  0  0  1  0  0
   -4.0381  -33.6072   53.1804 O   0  0  0  1  0  0
    1.8036  -25.3368   48.8595 H   0  0
   -2.1288  -21.6091   49.0987 H   0  0
   -1.8279  -22.6070   46.8034 H   0  0
   -0.3086  -23.9472   45.3593 H   0  0
    1.6125  -26.6055   46.5484 H   0  0
    2.7311  -25.2626   46.3985 H   0  0
    1.4985  -25.5269   45.0964 H   0  0
   -1.0790  -24.0625   52.2924 H   0  0
   -2.5787  -24.4172   53.1089 H   0  0
   -2.5278  -25.5176   48.9922 H   0  0
   -1.0368  -25.5124   49.9248 H   0  0
   -4.0343  -26.0383   52.8433 H   0  0
   -1.4656  -26.3318   53.6833 H   0  0
   -0.3808  -26.2486   52.3004 H   0  0
   -3.4286  -27.3516   50.2032 H   0  0
   -1.7327  -27.7757   49.9356 H   0  0
   -7.2485  -24.2226   49.5194 H   0  0
   -3.7136  -23.2258   49.0310 H   0  0
   -6.4459  -26.5555   53.0439 H   0  0
   -8.0604  -25.6523   51.3770 H   0  0
   -5.2602  -21.5741   49.8914 H   0  0
   -6.5834  -22.2686   48.9366 H   0  0
   -5.2162  -21.4683   48.1066 H   0  0
   -6.0264  -24.4440   47.4982 H   0  0
   -4.3654  -25.0605   47.5836 H   0  0
   -4.6945  -23.5099   46.7568 H   0  0
   -4.0148  -28.9287   50.9460 H   0  0
   -1.6131  -28.0364   54.4301 H   0  0
   -5.0199  -30.8656   52.1353 H   0  0
   -2.6203  -29.9767   55.6159 H   0  0
   -6.4058  -32.7366   54.9568 H   0  0
   -6.4798  -30.7917   54.6336 H   0  0
   -5.0050  -30.4452   56.3829 H   0  0
   -4.9297  -32.3901   56.7051 H   0  0
   -3.7711  -32.8798   52.4718 H   0  0
  1  2  1  0
  2  3  2  0
  2  4  1  0
  3  5  1  0
  3  6  1  0
  4  7  2  0
  5  8  1  0
  6  9  2  0
  7  9  1  0
  7 10  1  0
  8 11  2  0
  8 12  1  0
 12 13  1  0
 12 14  1  0
 12 15  1  0
 13 16  2  0
 13 17  1  0
 14 18  1  0
 15 19  1  0
 16 20  1  0
 16 21  1  0
 17 22  2  0
 18 23  1  0
 19 23  1  0
 20 24  2  0
 21 25  1  0
 21 26  1  0
 22 24  1  0
 23 27  1  0
 27 28  2  0
 27 29  1  0
 28 30  1  0
 29 31  2  0
 30 32  2  0
 31 32  1  0
 32 33  1  0
 33 34  1  0
 33 35  1  0
 33 36  1  0
 34 37  2  0
 34 38  1  0
 35 36  1  0
  4 39  1  0
  5 40  1  0
  6 41  1  0
  9 42  1  0
 10 43  1  0
 10 44  1  0
 10 45  1  0
 14 46  1  0
 14 47  1  0
 15 48  1  0
 15 49  1  0
 17 50  1  0
 18 51  1  0
 18 52  1  0
 19 53  1  0
 19 54  1  0
 20 55  1  0
 21 56  1  0
 22 57  1  0
 24 58  1  0
 25 59  1  0
 25 60  1  0
 25 61  1  0
 26 62  1  0
 26 63  1  0
 26 64  1  0
 28 65  1  0
 29 66  1  0
 30 67  1  0
 31 68  1  0
 35 69  1  0
 35 70  1  0
 36 71  1  0
 36 72  1  0
 38 73  1  0
M  END
> <Name>
6

> <AbsoluteEnergy>
74.3093

> <Clean Energy>
126.617

> <Column 1>
6

> <ConfNumber>
53

> <Filter_Pass>
Failed

> <IC50_nM>
39.66

> <LogP>
7.06

> <MOL_NUMBER>
3

> <QSAR_Score_pIC50>
7.402

> <RelativeEnergy>
9.6077

> <SMILES>
Cc1ccc(NC(=O)C2(c3ccccc3C(C)C)CCN(c3ccc(C4(C(=O)O)CC4)cc3)CC2)c(Cl)c1

> <Toxicity_Alerts>
DILI, Basic N (hERG Warning)

> <Type>
Analog

> <POSE_NUMBER>
1

> <LibDockScore>
141.7982

> <HotSpots>
-5.93,-24.72,51.19,A,53,22
-4.53,-24.52,46.19,A,17,26
-3.33,-32.52,54.19,P,48,38

$$$$
6
  SciTegic05082609073D

 73 77  0  0  0  0            999 V2000
   -8.2087  -28.1180   56.1850 Cl  0  0  0  1  0  0
   -8.5895  -29.0203   54.7616 C   0  0  0  1  0  0
   -7.7974  -28.9841   53.5765 C   0  0  0  1  0  0
   -9.7516  -29.8163   54.8096 C   0  0  0  1  0  0
   -6.6417  -28.2012   53.4972 N   0  0  0  1  0  0
   -8.2056  -29.7795   52.4764 C   0  0  0  1  0  0
  -10.1494  -30.5826   53.7006 C   0  0  0  1  0  0
   -5.6777  -28.2391   52.4970 C   0  0  0  1  0  0
   -9.3690  -30.5613   52.5346 C   0  0  0  1  0  0
  -11.3920  -31.4098   53.7723 C   0  0  0  1  0  0
   -5.8287  -28.9589   51.5328 O   0  0  0  1  0  0
   -4.4100  -27.3692   52.5913 C   0  0  0  1  0  0
   -3.6833  -27.3704   51.2201 C   0  0  0  1  0  0
   -4.7469  -25.9674   53.2167 C   0  0  0  1  0  0
   -3.4370  -27.9302   53.6993 C   0  0  0  1  0  0
   -3.6187  -26.2937   50.2607 C   0  0  0  1  0  0
   -3.0070  -28.5763   50.8917 C   0  0  0  1  0  0
   -3.5184  -25.1195   53.6716 C   0  0  0  1  0  0
   -2.0887  -27.1618   53.7900 C   0  0  0  1  0  0
   -2.7078  -26.4083   49.1785 C   0  0  0  1  0  0
   -4.4745  -25.0387   50.3318 C   0  0  0  1  0  0
   -2.1668  -28.6832   49.7792 C   0  0  0  1  0  0
   -2.2297  -25.7616   53.2717 N   0  0  0  1  0  0
   -1.9851  -27.5815   48.9430 C   0  0  0  1  0  0
   -4.3426  -24.0553   49.1428 C   0  0  0  1  0  0
   -5.9701  -25.3848   50.4873 C   0  0  0  1  0  0
   -1.3040  -25.1910   52.3871 C   0  0  0  1  0  0
   -1.7124  -24.2835   51.3795 C   0  0  0  1  0  0
    0.0691  -25.5407   52.4380 C   0  0  0  1  0  0
   -0.8309  -23.8891   50.3637 C   0  0  0  1  0  0
    0.9529  -25.1476   51.4184 C   0  0  0  1  0  0
    0.4856  -24.3746   50.3409 C   0  0  0  1  0  0
    1.3699  -24.0807   49.1522 C   0  0  0  1  0  0
    2.6855  -23.4092   49.5133 C   0  0  0  1  0  0
    1.3039  -24.9718   47.9179 C   0  0  0  1  0  0
    0.6746  -23.6003   47.8836 C   0  0  0  1  0  0
    2.6758  -22.2337   49.7965 O   0  0  0  1  0  0
    3.8185  -24.1111   49.5032 O   0  0  0  1  0  0
  -10.3505  -29.8379   55.7200 H   0  0
   -6.4829  -27.4996   54.2893 H   0  0
   -7.6038  -29.7837   51.5676 H   0  0
   -9.6680  -31.1546   51.6705 H   0  0
  -12.1842  -30.7076   54.0321 H   0  0
  -11.2471  -32.0631   54.6327 H   0  0
  -11.6085  -31.9641   52.8591 H   0  0
   -5.4011  -26.1173   54.0756 H   0  0
   -5.3158  -25.3896   52.4882 H   0  0
   -3.2302  -28.9798   53.4905 H   0  0
   -3.9367  -27.8795   54.6667 H   0  0
   -3.1482  -29.4488   51.5296 H   0  0
   -3.5791  -24.1293   53.2201 H   0  0
   -3.5401  -25.0078   54.7556 H   0  0
   -1.3344  -27.6865   53.2037 H   0  0
   -1.7632  -27.1281   54.8297 H   0  0
   -2.5677  -25.5573   48.5120 H   0  0
   -4.0791  -24.5285   51.2101 H   0  0
   -1.6564  -29.6225   49.5664 H   0  0
   -1.2835  -27.6352   48.1106 H   0  0
   -4.5915  -24.6197   48.2441 H   0  0
   -3.2897  -23.7795   49.0834 H   0  0
   -4.9806  -23.1787   49.2550 H   0  0
   -6.1003  -25.9669   51.3996 H   0  0
   -6.2789  -25.9887   49.6340 H   0  0
   -6.5670  -24.4741   50.5365 H   0  0
   -2.7272  -23.8859   51.3942 H   0  0
    0.4445  -26.1226   53.2797 H   0  0
   -1.1694  -23.2022   49.5880 H   0  0
    2.0014  -25.4422   51.4630 H   0  0
    0.5549  -25.7557   48.0305 H   0  0
    2.2565  -24.9912   47.3884 H   0  0
    1.2912  -22.8880   47.3354 H   0  0
   -0.4100  -23.6523   47.9791 H   0  0
    3.8736  -24.5108   48.5338 H   0  0
  1  2  1  0
  2  3  2  0
  2  4  1  0
  3  5  1  0
  3  6  1  0
  4  7  2  0
  5  8  1  0
  6  9  2  0
  7  9  1  0
  7 10  1  0
  8 11  2  0
  8 12  1  0
 12 13  1  0
 12 14  1  0
 12 15  1  0
 13 16  2  0
 13 17  1  0
 14 18  1  0
 15 19  1  0
 16 20  1  0
 16 21  1  0
 17 22  2  0
 18 23  1  0
 19 23  1  0
 20 24  2  0
 21 25  1  0
 21 26  1  0
 22 24  1  0
 23 27  1  0
 27 28  2  0
 27 29  1  0
 28 30  1  0
 29 31  2  0
 30 32  2  0
 31 32  1  0
 32 33  1  0
 33 34  1  0
 33 35  1  0
 33 36  1  0
 34 37  2  0
 34 38  1  0
 35 36  1  0
  4 39  1  0
  5 40  1  0
  6 41  1  0
  9 42  1  0
 10 43  1  0
 10 44  1  0
 10 45  1  0
 14 46  1  0
 14 47  1  0
 15 48  1  0
 15 49  1  0
 17 50  1  0
 18 51  1  0
 18 52  1  0
 19 53  1  0
 19 54  1  0
 20 55  1  0
 21 56  1  0
 22 57  1  0
 24 58  1  0
 25 59  1  0
 25 60  1  0
 25 61  1  0
 26 62  1  0
 26 63  1  0
 26 64  1  0
 28 65  1  0
 29 66  1  0
 30 67  1  0
 31 68  1  0
 35 69  1  0
 35 70  1  0
 36 71  1  0
 36 72  1  0
 38 73  1  0
M  END
> <Name>
6

> <AbsoluteEnergy>
81.5755

> <Clean Energy>
126.617

> <Column 1>
6

> <ConfNumber>
114

> <Filter_Pass>
Failed

> <IC50_nM>
39.66

> <LogP>
7.06

> <MOL_NUMBER>
3

> <QSAR_Score_pIC50>
7.402

> <RelativeEnergy>
16.8739

> <SMILES>
Cc1ccc(NC(=O)C2(c3ccccc3C(C)C)CCN(c3ccc(C4(C(=O)O)CC4)cc3)CC2)c(Cl)c1

> <Toxicity_Alerts>
DILI, Basic N (hERG Warning)

> <Type>
Analog

> <POSE_NUMBER>
2

> <LibDockScore>
124.4746

> <HotSpots>
-9.53,-30.12,52.78,A,62,9
-5.93,-24.72,51.19,A,53,26
1.87,-25.32,48.38,A,30,35

$$$$
6
  SciTegic05082609073D

 73 77  0  0  0  0            999 V2000
   -6.1634  -25.0543   51.2762 Cl  0  0  0  1  0  0
   -4.7381  -25.6764   52.0363 C   0  0  0  1  0  0
   -4.7322  -26.8699   52.8165 C   0  0  0  1  0  0
   -3.5456  -24.9435   51.8537 C   0  0  0  1  0  0
   -5.8849  -27.6518   52.9376 N   0  0  0  1  0  0
   -3.5139  -27.2634   53.4266 C   0  0  0  1  0  0
   -2.3429  -25.3583   52.4532 C   0  0  0  1  0  0
   -6.1937  -28.6108   53.9007 C   0  0  0  1  0  0
   -2.3338  -26.5171   53.2465 C   0  0  0  1  0  0
   -1.0770  -24.5819   52.2552 C   0  0  0  1  0  0
   -5.4192  -28.8656   54.7945 O   0  0  0  1  0  0
   -7.5462  -29.3629   53.8346 C   0  0  0  1  0  0
   -7.5514  -30.2875   52.6003 C   0  0  0  1  0  0
   -7.8292  -30.2182   55.1307 C   0  0  0  1  0  0
   -8.6520  -28.2559   53.7967 C   0  0  0  1  0  0
   -6.4455  -31.1466   52.2893 C   0  0  0  1  0  0
   -8.6592  -30.2993   51.7126 C   0  0  0  1  0  0
   -9.1190  -29.8967   55.9373 C   0  0  0  1  0  0
   -8.8409  -27.5199   55.1398 C   0  0  0  1  0  0
   -6.4997  -31.9735   51.1388 C   0  0  0  1  0  0
   -5.1858  -31.2273   53.1232 C   0  0  0  1  0  0
   -8.6867  -31.1209   50.5698 C   0  0  0  1  0  0
   -9.2784  -28.4394   56.2320 N   0  0  0  1  0  0
   -7.6083  -31.9630   50.2854 C   0  0  0  1  0  0
   -4.8260  -32.6816   53.5024 C   0  0  0  1  0  0
   -4.0031  -30.5401   52.4123 C   0  0  0  1  0  0
   -9.7920  -27.9564   57.4504 C   0  0  0  1  0  0
   -9.7512  -26.5720   57.7532 C   0  0  0  1  0  0
  -10.3569  -28.8184   58.4299 C   0  0  0  1  0  0
  -10.1351  -26.0865   59.0151 C   0  0  0  1  0  0
  -10.7443  -28.3349   59.6973 C   0  0  0  1  0  0
  -10.5699  -26.9757   60.0134 C   0  0  0  1  0  0
  -10.8028  -26.4684   61.4219 C   0  0  0  1  0  0
   -9.5012  -26.0833   62.1506 C   0  0  0  1  0  0
  -12.0507  -25.6419   61.7035 C   0  0  0  1  0  0
  -11.9424  -27.0486   62.2475 C   0  0  0  1  0  0
   -9.5615  -25.7399   63.3110 O   0  0  0  1  0  0
   -8.3196  -26.1196   61.5142 O   0  0  0  1  0  0
   -3.5571  -24.0432   51.2393 H   0  0
   -6.6321  -27.4922   52.1885 H   0  0
   -3.4908  -28.1599   54.0462 H   0  0
   -1.4091  -26.8401   53.7248 H   0  0
   -1.3189  -23.5722   52.5869 H   0  0
   -0.9476  -24.5379   51.1738 H   0  0
   -0.2093  -24.9977   52.7674 H   0  0
   -7.8594  -31.2700   54.8464 H   0  0
   -6.9755  -30.1178   55.8009 H   0  0
   -8.3942  -27.5260   53.0293 H   0  0
   -9.5995  -28.7122   53.5101 H   0  0
   -9.5125  -29.6541   51.9217 H   0  0
   -9.0962  -30.4461   56.8784 H   0  0
   -9.9856  -30.2390   55.3717 H   0  0
   -9.5875  -26.7355   55.0159 H   0  0
   -7.8989  -27.0518   55.4256 H   0  0
   -5.6600  -32.6312   50.9145 H   0  0
   -5.3883  -30.6926   54.0512 H   0  0
   -9.5507  -31.1002   49.9056 H   0  0
   -7.6307  -32.6064   49.4058 H   0  0
   -4.6923  -33.2514   52.5829 H   0  0
   -5.6609  -33.1059   54.0602 H   0  0
   -3.9161  -32.7103   54.1018 H   0  0
   -4.2580  -29.4948   52.2378 H   0  0
   -3.8370  -31.0308   51.4533 H   0  0
   -3.1043  -30.6069   53.0253 H   0  0
   -9.4149  -25.8691   56.9910 H   0  0
  -10.4934  -29.8744   58.1968 H   0  0
  -10.0956  -25.0167   59.2204 H   0  0
  -11.1784  -29.0142   60.4309 H   0  0
  -12.7054  -25.5969   60.8332 H   0  0
  -11.8695  -24.8964   62.4777 H   0  0
  -11.7050  -27.0509   63.3113 H   0  0
  -12.5393  -27.7514   61.6662 H   0  0
   -8.4592  -25.5027   60.6761 H   0  0
  1  2  1  0
  2  3  2  0
  2  4  1  0
  3  5  1  0
  3  6  1  0
  4  7  2  0
  5  8  1  0
  6  9  2  0
  7  9  1  0
  7 10  1  0
  8 11  2  0
  8 12  1  0
 12 13  1  0
 12 14  1  0
 12 15  1  0
 13 16  2  0
 13 17  1  0
 14 18  1  0
 15 19  1  0
 16 20  1  0
 16 21  1  0
 17 22  2  0
 18 23  1  0
 19 23  1  0
 20 24  2  0
 21 25  1  0
 21 26  1  0
 22 24  1  0
 23 27  1  0
 27 28  2  0
 27 29  1  0
 28 30  1  0
 29 31  2  0
 30 32  2  0
 31 32  1  0
 32 33  1  0
 33 34  1  0
 33 35  1  0
 33 36  1  0
 34 37  2  0
 34 38  1  0
 35 36  1  0
  4 39  1  0
  5 40  1  0
  6 41  1  0
  9 42  1  0
 10 43  1  0
 10 44  1  0
 10 45  1  0
 14 46  1  0
 14 47  1  0
 15 48  1  0
 15 49  1  0
 17 50  1  0
 18 51  1  0
 18 52  1  0
 19 53  1  0
 19 54  1  0
 20 55  1  0
 21 56  1  0
 22 57  1  0
 24 58  1  0
 25 59  1  0
 25 60  1  0
 25 61  1  0
 26 62  1  0
 26 63  1  0
 26 64  1  0
 28 65  1  0
 29 66  1  0
 30 67  1  0
 31 68  1  0
 35 69  1  0
 35 70  1  0
 36 71  1  0
 36 72  1  0
 38 73  1  0
M  END
> <Name>
6

> <AbsoluteEnergy>
71.7777

> <Clean Energy>
126.617

> <Column 1>
6

> <ConfNumber>
27

> <Filter_Pass>
Failed

> <IC50_nM>
39.66

> <LogP>
7.06

> <MOL_NUMBER>
3

> <QSAR_Score_pIC50>
7.402

> <RelativeEnergy>
7.07607

> <SMILES>
Cc1ccc(NC(=O)C2(c3ccccc3C(C)C)CCN(c3ccc(C4(C(=O)O)CC4)cc3)CC2)c(Cl)c1

> <Toxicity_Alerts>
DILI, Basic N (hERG Warning)

> <Type>
Analog

> <POSE_NUMBER>
3

> <LibDockScore>
123.8778

> <HotSpots>
-0.33,-25.52,53.19,A,64,10
-8.73,-28.12,54.38,A,70,15
-7.13,-31.92,50.98,A,49,24

$$$$
6
  SciTegic05082609073D

 73 77  0  0  0  0            999 V2000
    0.7759  -24.9763   47.0566 Cl  0  0  0  1  0  0
    1.4256  -24.3738   48.5360 C   0  0  0  1  0  0
    0.6373  -24.0979   49.6854 C   0  0  0  1  0  0
    2.8140  -24.1386   48.5754 C   0  0  0  1  0  0
   -0.7282  -24.3003   49.8009 N   0  0  0  1  0  0
    1.2663  -23.6013   50.8482 C   0  0  0  1  0  0
    3.4281  -23.6275   49.7356 C   0  0  0  1  0  0
   -1.3495  -25.4937   49.4892 C   0  0  0  1  0  0
    2.6460  -23.3756   50.8730 C   0  0  0  1  0  0
    4.8944  -23.3373   49.7743 C   0  0  0  1  0  0
   -0.7237  -26.3762   48.9437 O   0  0  0  1  0  0
   -2.8142  -25.7375   49.8970 C   0  0  0  1  0  0
   -3.8145  -24.6800   49.4007 C   0  0  0  1  0  0
   -2.7397  -25.8182   51.4594 C   0  0  0  1  0  0
   -3.3168  -27.1467   49.4323 C   0  0  0  1  0  0
   -4.0595  -24.4375   48.0135 C   0  0  0  1  0  0
   -4.5672  -23.9217   50.3407 C   0  0  0  1  0  0
   -1.8511  -26.9724   51.9617 C   0  0  0  1  0  0
   -2.5324  -28.3547   49.9992 C   0  0  0  1  0  0
   -5.0755  -23.5297   47.6299 C   0  0  0  1  0  0
   -3.2935  -25.1115   46.9050 C   0  0  0  1  0  0
   -5.5760  -23.0318   49.9408 C   0  0  0  1  0  0
   -2.4488  -28.2433   51.4759 N   0  0  0  1  0  0
   -5.8367  -22.8421   48.5815 C   0  0  0  1  0  0
   -4.2280  -25.6196   45.7919 C   0  0  0  1  0  0
   -2.1691  -24.2195   46.3496 C   0  0  0  1  0  0
   -2.9830  -29.1671   52.3531 C   0  0  0  1  0  0
   -3.9589  -30.0959   51.9253 C   0  0  0  1  0  0
   -2.5913  -29.1650   53.7101 C   0  0  0  1  0  0
   -4.6447  -30.8755   52.8663 C   0  0  0  1  0  0
   -3.2892  -29.9336   54.6522 C   0  0  0  1  0  0
   -4.3640  -30.7402   54.2395 C   0  0  0  1  0  0
   -5.2332  -31.4355   55.2550 C   0  0  0  1  0  0
   -6.5299  -30.6790   55.5105 C   0  0  0  1  0  0
   -4.5810  -32.2203   56.3816 C   0  0  0  1  0  0
   -5.2752  -32.9530   55.2575 C   0  0  0  1  0  0
   -6.4998  -29.4882   55.7282 O   0  0  0  1  0  0
   -7.6743  -31.3541   55.4724 O   0  0  0  1  0  0
    3.4212  -24.3550   47.6964 H   0  0
   -1.3332  -23.4897   50.1498 H   0  0
    0.6697  -23.3917   51.7360 H   0  0
    3.1171  -23.0015   51.7819 H   0  0
    5.0574  -22.6501   48.9441 H   0  0
    5.3656  -24.2810   49.4995 H   0  0
    5.2540  -22.9454   50.7257 H   0  0
   -2.3477  -24.8770   51.8448 H   0  0
   -3.7461  -25.9485   51.8571 H   0  0
   -3.2783  -27.1891   48.3438 H   0  0
   -4.3648  -27.2519   49.7127 H   0  0
   -4.3537  -24.0355   51.4035 H   0  0
   -1.8261  -26.9710   53.0514 H   0  0
   -0.8438  -26.8626   51.5599 H   0  0
   -3.0464  -29.2785   49.7338 H   0  0
   -1.5267  -28.3655   49.5791 H   0  0
   -5.2691  -23.3627   46.5703 H   0  0
   -2.8108  -25.9858   47.3417 H   0  0
   -6.1547  -22.4900   50.6889 H   0  0
   -6.6280  -22.1628   48.2643 H   0  0
   -4.7803  -24.7704   45.3895 H   0  0
   -4.9343  -26.3256   46.2287 H   0  0
   -3.6534  -26.1029   45.0017 H   0  0
   -1.4900  -23.9757   47.1666 H   0  0
   -2.6157  -23.2978   45.9766 H   0  0
   -1.6316  -24.7300   45.5504 H   0  0
   -4.1780  -30.2057   50.8632 H   0  0
   -1.7406  -28.5617   54.0270 H   0  0
   -5.3984  -31.5894   52.5340 H   0  0
   -2.9990  -29.9058   55.7025 H   0  0
   -5.1892  -32.2029   57.2860 H   0  0
   -3.4969  -32.2507   56.2722 H   0  0
   -4.5603  -33.3749   54.5511 H   0  0
   -6.2526  -33.3258   55.5639 H   0  0
   -7.5655  -32.1262   56.1756 H   0  0
  1  2  1  0
  2  3  2  0
  2  4  1  0
  3  5  1  0
  3  6  1  0
  4  7  2  0
  5  8  1  0
  6  9  2  0
  7  9  1  0
  7 10  1  0
  8 11  2  0
  8 12  1  0
 12 13  1  0
 12 14  1  0
 12 15  1  0
 13 16  2  0
 13 17  1  0
 14 18  1  0
 15 19  1  0
 16 20  1  0
 16 21  1  0
 17 22  2  0
 18 23  1  0
 19 23  1  0
 20 24  2  0
 21 25  1  0
 21 26  1  0
 22 24  1  0
 23 27  1  0
 27 28  2  0
 27 29  1  0
 28 30  1  0
 29 31  2  0
 30 32  2  0
 31 32  1  0
 32 33  1  0
 33 34  1  0
 33 35  1  0
 33 36  1  0
 34 37  2  0
 34 38  1  0
 35 36  1  0
  4 39  1  0
  5 40  1  0
  6 41  1  0
  9 42  1  0
 10 43  1  0
 10 44  1  0
 10 45  1  0
 14 46  1  0
 14 47  1  0
 15 48  1  0
 15 49  1  0
 17 50  1  0
 18 51  1  0
 18 52  1  0
 19 53  1  0
 19 54  1  0
 20 55  1  0
 21 56  1  0
 22 57  1  0
 24 58  1  0
 25 59  1  0
 25 60  1  0
 25 61  1  0
 26 62  1  0
 26 63  1  0
 26 64  1  0
 28 65  1  0
 29 66  1  0
 30 67  1  0
 31 68  1  0
 35 69  1  0
 35 70  1  0
 36 71  1  0
 36 72  1  0
 38 73  1  0
M  END
> <Name>
6

> <AbsoluteEnergy>
73.9245

> <Clean Energy>
126.617

> <Column 1>
6

> <ConfNumber>
46

> <Filter_Pass>
Failed

> <IC50_nM>
39.66

> <LogP>
7.06

> <MOL_NUMBER>
3

> <QSAR_Score_pIC50>
7.402

> <RelativeEnergy>
9.22287

> <SMILES>
Cc1ccc(NC(=O)C2(c3ccccc3C(C)C)CCN(c3ccc(C4(C(=O)O)CC4)cc3)CC2)c(Cl)c1

> <Toxicity_Alerts>
DILI, Basic N (hERG Warning)

> <Type>
Analog

> <POSE_NUMBER>
4

> <LibDockScore>
123.0964

> <HotSpots>
4.67,-22.92,49.98,A,40,10
-4.53,-24.52,46.19,A,17,20
-4.33,-32.92,55.19,A,75,35

$$$$
6
  SciTegic05082609073D

 73 77  0  0  0  0            999 V2000
   -7.2626  -24.6340   50.2854 Cl  0  0  0  1  0  0
   -5.7147  -24.1205   50.8552 C   0  0  0  1  0  0
   -4.8113  -24.9880   51.5334 C   0  0  0  1  0  0
   -5.3606  -22.7785   50.6193 C   0  0  0  1  0  0
   -5.1024  -26.3407   51.7117 N   0  0  0  1  0  0
   -3.5850  -24.4524   51.9934 C   0  0  0  1  0  0
   -4.1286  -22.2700   51.0648 C   0  0  0  1  0  0
   -4.4320  -27.2436   52.5258 C   0  0  0  1  0  0
   -3.2483  -23.1104   51.7639 C   0  0  0  1  0  0
   -3.7657  -20.8482   50.7890 C   0  0  0  1  0  0
   -3.8022  -26.8548   53.4860 O   0  0  0  1  0  0
   -4.4556  -28.7668   52.2651 C   0  0  0  1  0  0
   -5.5800  -29.3515   53.1330 C   0  0  0  1  0  0
   -4.7464  -29.2461   50.7917 C   0  0  0  1  0  0
   -2.9624  -29.1663   52.5157 C   0  0  0  1  0  0
   -5.5159  -30.4146   54.1019 C   0  0  0  1  0  0
   -6.8439  -28.7458   52.8992 C   0  0  0  1  0  0
   -3.5428  -29.2338   49.8217 C   0  0  0  1  0  0
   -1.9659  -28.4401   51.5584 C   0  0  0  1  0  0
   -6.7096  -30.7974   54.7653 C   0  0  0  1  0  0
   -4.2607  -31.1827   54.4651 C   0  0  0  1  0  0
   -7.9984  -29.1329   53.5786 C   0  0  0  1  0  0
   -2.5869  -28.1710   50.2221 N   0  0  0  1  0  0
   -7.9316  -30.1634   54.5147 C   0  0  0  1  0  0
   -4.3578  -32.6490   54.0055 C   0  0  0  1  0  0
   -3.8657  -31.1160   55.9600 C   0  0  0  1  0  0
   -2.4066  -27.0047   49.4700 C   0  0  0  1  0  0
   -1.8450  -25.8365   50.0411 C   0  0  0  1  0  0
   -2.8260  -26.9403   48.1190 C   0  0  0  1  0  0
   -1.8650  -24.6150   49.3506 C   0  0  0  1  0  0
   -2.8430  -25.7204   47.4260 C   0  0  0  1  0  0
   -2.4145  -24.5442   48.0597 C   0  0  0  1  0  0
   -2.5731  -23.2126   47.3661 C   0  0  0  1  0  0
   -3.9799  -23.0181   46.7934 C   0  0  0  1  0  0
   -1.3842  -22.6444   46.6066 C   0  0  0  1  0  0
   -1.8295  -21.9969   47.8968 C   0  0  0  1  0  0
   -4.1288  -22.3438   45.7995 O   0  0  0  1  0  0
   -5.0189  -23.6016   47.3968 O   0  0  0  1  0  0
   -6.0506  -22.1258   50.0845 H   0  0
   -5.9347  -26.7249   51.1598 H   0  0
   -2.8901  -25.0938   52.5354 H   0  0
   -2.2993  -22.7186   52.1299 H   0  0
   -4.5779  -20.2611   51.2176 H   0  0
   -3.8316  -20.7448   49.7059 H   0  0
   -2.7899  -20.5567   51.1775 H   0  0
   -5.1474  -30.2590   50.8299 H   0  0
   -5.5331  -28.6194   50.3717 H   0  0
   -2.7000  -28.9277   53.5464 H   0  0
   -2.8561  -30.2433   52.3855 H   0  0
   -6.9137  -27.9477   52.1601 H   0  0
   -3.8944  -29.0411   48.8081 H   0  0
   -3.0421  -30.2015   49.8525 H   0  0
   -1.6611  -27.4949   52.0076 H   0  0
   -1.0806  -29.0612   51.4222 H   0  0
   -6.6741  -31.6093   55.4917 H   0  0
   -3.4600  -30.6759   53.9265 H   0  0
   -8.9463  -28.6332   53.3791 H   0  0
   -8.8287  -30.4745   55.0500 H   0  0
   -4.4979  -32.6705   52.9248 H   0  0
   -5.2198  -33.1120   54.4859 H   0  0
   -3.4491  -33.1881   54.2732 H   0  0
   -4.7099  -31.5010   56.5321 H   0  0
   -3.7370  -30.0631   56.2108 H   0  0
   -2.9584  -31.6838   56.1664 H   0  0
   -1.3910  -25.8870   51.0307 H   0  0
   -3.1402  -27.8516   47.6101 H   0  0
   -1.4535  -23.7197   49.8167 H   0  0
   -3.1898  -25.6864   46.3932 H   0  0
   -1.7025  -22.0690   45.7373 H   0  0
   -0.4911  -23.2528   46.7493 H   0  0
   -1.1728  -22.2599   48.7261 H   0  0
   -2.3854  -21.0773   47.7143 H   0  0
   -4.9840  -23.2574   48.3882 H   0  0
  1  2  1  0
  2  3  2  0
  2  4  1  0
  3  5  1  0
  3  6  1  0
  4  7  2  0
  5  8  1  0
  6  9  2  0
  7  9  1  0
  7 10  1  0
  8 11  2  0
  8 12  1  0
 12 13  1  0
 12 14  1  0
 12 15  1  0
 13 16  2  0
 13 17  1  0
 14 18  1  0
 15 19  1  0
 16 20  1  0
 16 21  1  0
 17 22  2  0
 18 23  1  0
 19 23  1  0
 20 24  2  0
 21 25  1  0
 21 26  1  0
 22 24  1  0
 23 27  1  0
 27 28  2  0
 27 29  1  0
 28 30  1  0
 29 31  2  0
 30 32  2  0
 31 32  1  0
 32 33  1  0
 33 34  1  0
 33 35  1  0
 33 36  1  0
 34 37  2  0
 34 38  1  0
 35 36  1  0
  4 39  1  0
  5 40  1  0
  6 41  1  0
  9 42  1  0
 10 43  1  0
 10 44  1  0
 10 45  1  0
 14 46  1  0
 14 47  1  0
 15 48  1  0
 15 49  1  0
 17 50  1  0
 18 51  1  0
 18 52  1  0
 19 53  1  0
 19 54  1  0
 20 55  1  0
 21 56  1  0
 22 57  1  0
 24 58  1  0
 25 59  1  0
 25 60  1  0
 25 61  1  0
 26 62  1  0
 26 63  1  0
 26 64  1  0
 28 65  1  0
 29 66  1  0
 30 67  1  0
 31 68  1  0
 35 69  1  0
 35 70  1  0
 36 71  1  0
 36 72  1  0
 38 73  1  0
M  END
> <Name>
6

> <AbsoluteEnergy>
82.2361

> <Clean Energy>
126.617

> <Column 1>
6

> <ConfNumber>
116

> <Filter_Pass>
Failed

> <IC50_nM>
39.66

> <LogP>
7.06

> <MOL_NUMBER>
3

> <QSAR_Score_pIC50>
7.402

> <RelativeEnergy>
17.5345

> <SMILES>
Cc1ccc(NC(=O)C2(c3ccccc3C(C)C)CCN(c3ccc(C4(C(=O)O)CC4)cc3)CC2)c(Cl)c1

> <Toxicity_Alerts>
DILI, Basic N (hERG Warning)

> <Type>
Analog

> <POSE_NUMBER>
5

> <LibDockScore>
119.1994

> <HotSpots>
-4.73,-22.32,50.38,A,46,4
-7.93,-28.32,52.38,A,59,22
0.27,-22.52,46.78,A,23,35

$$$$
6
  SciTegic05082609073D

 73 77  0  0  0  0            999 V2000
   -5.9053  -26.7297   51.9446 Cl  0  0  0  1  0  0
   -5.7991  -25.0763   51.4771 C   0  0  0  1  0  0
   -4.6028  -24.3005   51.5172 C   0  0  0  1  0  0
   -7.0044  -24.4834   51.0539 C   0  0  0  1  0  0
   -3.3466  -24.7845   51.8691 N   0  0  0  1  0  0
   -4.6789  -22.9281   51.1885 C   0  0  0  1  0  0
   -7.0586  -23.1195   50.7168 C   0  0  0  1  0  0
   -2.8921  -26.0910   51.7605 C   0  0  0  1  0  0
   -5.8915  -22.3444   50.7936 C   0  0  0  1  0  0
   -8.3436  -22.4907   50.2854 C   0  0  0  1  0  0
   -3.4714  -26.8881   51.0566 O   0  0  0  1  0  0
   -1.6333  -26.5299   52.5305 C   0  0  0  1  0  0
   -0.4220  -25.6803   52.1206 C   0  0  0  1  0  0
   -1.2857  -28.0539   52.3064 C   0  0  0  1  0  0
   -2.0246  -26.3998   54.0500 C   0  0  0  1  0  0
   -0.2372  -25.2036   50.7809 C   0  0  0  1  0  0
    0.5630  -25.3436   53.0848 C   0  0  0  1  0  0
   -1.9546  -29.0299   53.2984 C   0  0  0  1  0  0
   -3.2597  -27.2504   54.4505 C   0  0  0  1  0  0
    0.9034  -24.4315   50.4697 C   0  0  0  1  0  0
   -1.1976  -25.4739   49.6449 C   0  0  0  1  0  0
    1.6864  -24.5738   52.7529 C   0  0  0  1  0  0
   -3.2931  -28.5173   53.6705 N   0  0  0  1  0  0
    1.8572  -24.1182   51.4437 C   0  0  0  1  0  0
   -1.8898  -24.1901   49.1500 C   0  0  0  1  0  0
   -0.5229  -26.2423   48.4932 C   0  0  0  1  0  0
   -4.4797  -29.0975   53.2400 C   0  0  0  1  0  0
   -4.5207  -29.8237   52.0287 C   0  0  0  1  0  0
   -5.6732  -28.9453   53.9811 C   0  0  0  1  0  0
   -5.7333  -30.3247   51.5375 C   0  0  0  1  0  0
   -6.8901  -29.4413   53.4830 C   0  0  0  1  0  0
   -6.9275  -30.1137   52.2478 C   0  0  0  1  0  0
   -8.2360  -30.5978   51.6679 C   0  0  0  1  0  0
   -8.2260  -32.0684   51.2489 C   0  0  0  1  0  0
   -9.5256  -29.9584   52.1647 C   0  0  0  1  0  0
   -9.0064  -29.6234   50.7884 C   0  0  0  1  0  0
   -9.2376  -32.7296   51.3346 O   0  0  0  1  0  0
   -7.0945  -32.5987   50.7835 O   0  0  0  1  0  0
   -7.9075  -25.0901   50.9868 H   0  0
   -2.6555  -24.0711   52.2670 H   0  0
   -3.7805  -22.3132   51.2428 H   0  0
   -5.9274  -21.2837   50.5452 H   0  0
   -9.0373  -22.6911   51.1019 H   0  0
   -8.6722  -23.0885   49.4353 H   0  0
   -8.2668  -21.4294   50.0491 H   0  0
   -0.2049  -28.1798   52.3709 H   0  0
   -1.5773  -28.3335   51.2940 H   0  0
   -2.2311  -25.3532   54.2739 H   0  0
   -1.1747  -26.7046   54.6606 H   0  0
    0.4430  -25.6927   54.1104 H   0  0
   -2.0583  -30.0090   52.8307 H   0  0
   -1.3388  -29.1186   54.1934 H   0  0
   -4.1694  -26.6828   54.2544 H   0  0
   -3.2083  -27.4835   55.5141 H   0  0
    1.0434  -24.0725   49.4501 H   0  0
   -1.9809  -26.1185   50.0438 H   0  0
    2.4260  -24.3310   53.5158 H   0  0
    2.7305  -23.5207   51.1820 H   0  0
   -1.1207  -23.4920   48.8195 H   0  0
   -2.4298  -23.7477   49.9871 H   0  0
   -2.5755  -24.4126   48.3325 H   0  0
   -0.1447  -27.1870   48.8837 H   0  0
    0.3163  -25.6501   48.1283 H   0  0
   -1.2334  -26.4254   47.6871 H   0  0
   -3.6001  -29.9958   51.4711 H   0  0
   -5.6498  -28.4394   54.9463 H   0  0
   -5.7506  -30.8807   50.6001 H   0  0
   -7.8076  -29.3046   54.0553 H   0  0
   -9.3262  -29.1571   52.8763 H   0  0
  -10.3605  -30.6578   52.1210 H   0  0
   -9.5650  -30.1431   50.0099 H   0  0
   -8.5295  -28.6435   50.7654 H   0  0
   -6.3844  -32.4363   51.5398 H   0  0
  1  2  1  0
  2  3  2  0
  2  4  1  0
  3  5  1  0
  3  6  1  0
  4  7  2  0
  5  8  1  0
  6  9  2  0
  7  9  1  0
  7 10  1  0
  8 11  2  0
  8 12  1  0
 12 13  1  0
 12 14  1  0
 12 15  1  0
 13 16  2  0
 13 17  1  0
 14 18  1  0
 15 19  1  0
 16 20  1  0
 16 21  1  0
 17 22  2  0
 18 23  1  0
 19 23  1  0
 20 24  2  0
 21 25  1  0
 21 26  1  0
 22 24  1  0
 23 27  1  0
 27 28  2  0
 27 29  1  0
 28 30  1  0
 29 31  2  0
 30 32  2  0
 31 32  1  0
 32 33  1  0
 33 34  1  0
 33 35  1  0
 33 36  1  0
 34 37  2  0
 34 38  1  0
 35 36  1  0
  4 39  1  0
  5 40  1  0
  6 41  1  0
  9 42  1  0
 10 43  1  0
 10 44  1  0
 10 45  1  0
 14 46  1  0
 14 47  1  0
 15 48  1  0
 15 49  1  0
 17 50  1  0
 18 51  1  0
 18 52  1  0
 19 53  1  0
 19 54  1  0
 20 55  1  0
 21 56  1  0
 22 57  1  0
 24 58  1  0
 25 59  1  0
 25 60  1  0
 25 61  1  0
 26 62  1  0
 26 63  1  0
 26 64  1  0
 28 65  1  0
 29 66  1  0
 30 67  1  0
 31 68  1  0
 35 69  1  0
 35 70  1  0
 36 71  1  0
 36 72  1  0
 38 73  1  0
M  END
> <Name>
6

> <AbsoluteEnergy>
68.1523

> <Clean Energy>
126.617

> <Column 1>
6

> <ConfNumber>
10

> <Filter_Pass>
Failed

> <IC50_nM>
39.66

> <LogP>
7.06

> <MOL_NUMBER>
3

> <QSAR_Score_pIC50>
7.402

> <RelativeEnergy>
3.45068

> <SMILES>
Cc1ccc(NC(=O)C2(c3ccccc3C(C)C)CCN(c3ccc(C4(C(=O)O)CC4)cc3)CC2)c(Cl)c1

> <Toxicity_Alerts>
DILI, Basic N (hERG Warning)

> <Type>
Analog

> <POSE_NUMBER>
6

> <LibDockScore>
93.6814

> <HotSpots>
-6.33,-26.32,51.98,A,57,1
-6.13,-22.12,49.98,A,41,9
-9.33,-29.92,51.19,A,52,35

$$$$
6
  SciTegic05082609073D

 73 77  0  0  0  0            999 V2000
   -5.9770  -26.3531   51.2030 Cl  0  0  0  1  0  0
   -6.0394  -24.6681   50.8023 C   0  0  0  1  0  0
   -4.8745  -23.8818   50.5247 C   0  0  0  1  0  0
   -7.3209  -24.0811   50.7550 C   0  0  0  1  0  0
   -3.5996  -24.4696   50.5375 N   0  0  0  1  0  0
   -5.0636  -22.5033   50.2427 C   0  0  0  1  0  0
   -7.4797  -22.7184   50.4503 C   0  0  0  1  0  0
   -2.4363  -24.0599   51.1843 C   0  0  0  1  0  0
   -6.3443  -21.9322   50.1994 C   0  0  0  1  0  0
   -8.8494  -22.1197   50.3976 C   0  0  0  1  0  0
   -2.2542  -22.8914   51.4474 O   0  0  0  1  0  0
   -1.3607  -25.1049   51.5636 C   0  0  0  1  0  0
    0.0313  -24.6380   51.0964 C   0  0  0  1  0  0
   -1.4739  -25.2769   53.1336 C   0  0  0  1  0  0
   -1.6456  -26.5202   50.9264 C   0  0  0  1  0  0
    0.3153  -24.3043   49.7270 C   0  0  0  1  0  0
    1.0919  -24.5214   52.0322 C   0  0  0  1  0  0
   -0.7561  -26.5158   53.7336 C   0  0  0  1  0  0
   -0.8358  -27.6652   51.5616 C   0  0  0  1  0  0
    1.6363  -23.9679   49.3556 C   0  0  0  1  0  0
   -0.7192  -24.2755   48.6174 C   0  0  0  1  0  0
    2.3909  -24.1714   51.6421 C   0  0  0  1  0  0
   -1.2024  -27.7227   52.9974 N   0  0  0  1  0  0
    2.6672  -23.9053   50.2996 C   0  0  0  1  0  0
   -0.9575  -22.8473   48.0872 C   0  0  0  1  0  0
   -0.3550  -25.2308   47.4630 C   0  0  0  1  0  0
   -2.0019  -28.7290   53.5383 C   0  0  0  1  0  0
   -2.0208  -28.9581   54.9318 C   0  0  0  1  0  0
   -2.8488  -29.5171   52.7194 C   0  0  0  1  0  0
   -2.9891  -29.7934   55.5064 C   0  0  0  1  0  0
   -3.8222  -30.3502   53.2944 C   0  0  0  1  0  0
   -3.9459  -30.4175   54.6910 C   0  0  0  1  0  0
   -5.1234  -31.1099   55.3274 C   0  0  0  1  0  0
   -6.3855  -30.2424   55.2516 C   0  0  0  1  0  0
   -4.9016  -31.9706   56.5600 C   0  0  0  1  0  0
   -5.2377  -32.6250   55.2389 C   0  0  0  1  0  0
   -7.4451  -30.7645   55.0010 O   0  0  0  1  0  0
   -6.2973  -28.9173   55.4665 O   0  0  0  1  0  0
   -8.2001  -24.6927   50.9575 H   0  0
   -3.5079  -25.3680   49.9637 H   0  0
   -4.1935  -21.8740   50.0555 H   0  0
   -6.4582  -20.8728   49.9698 H   0  0
   -9.2862  -22.3272   51.3745 H   0  0
   -9.3927  -22.7210   49.6687 H   0  0
   -8.8594  -21.0575   50.1530 H   0  0
   -1.0739  -24.3820   53.6104 H   0  0
   -2.5289  -25.3257   53.4030 H   0  0
   -1.4194  -26.4801   49.8609 H   0  0
   -2.7076  -26.7444   51.0263 H   0  0
    0.8895  -24.7099   53.0865 H   0  0
   -1.0153  -26.6146   54.7877 H   0  0
    0.3225  -26.4007   53.6264 H   0  0
   -1.0906  -28.6084   51.0784 H   0  0
    0.2306  -27.4627   51.4618 H   0  0
    1.8573  -23.7523   48.3102 H   0  0
   -1.6519  -24.6270   49.0586 H   0  0
    3.1852  -24.1069   52.3858 H   0  0
    3.6803  -23.6502   49.9887 H   0  0
   -0.0110  -22.4564   47.7139 H   0  0
   -1.2938  -22.2242   48.9159 H   0  0
   -1.7033  -22.8525   47.2923 H   0  0
   -0.2781  -26.2414   47.8641 H   0  0
    0.6156  -24.9349   47.0648 H   0  0
   -1.1119  -25.1923   46.6796 H   0  0
   -1.2748  -28.4805   55.5671 H   0  0
   -2.7438  -29.4762   51.6352 H   0  0
   -2.9988  -29.9578   56.5839 H   0  0
   -4.4796  -30.9427   52.6582 H   0  0
   -5.7637  -31.9455   57.2266 H   0  0
   -3.8418  -32.0646   56.7968 H   0  0
   -4.3564  -33.0662   54.7734 H   0  0
   -6.2788  -32.9456   55.2026 H   0  0
   -5.5872  -28.5800   54.7704 H   0  0
  1  2  1  0
  2  3  2  0
  2  4  1  0
  3  5  1  0
  3  6  1  0
  4  7  2  0
  5  8  1  0
  6  9  2  0
  7  9  1  0
  7 10  1  0
  8 11  2  0
  8 12  1  0
 12 13  1  0
 12 14  1  0
 12 15  1  0
 13 16  2  0
 13 17  1  0
 14 18  1  0
 15 19  1  0
 16 20  1  0
 16 21  1  0
 17 22  2  0
 18 23  1  0
 19 23  1  0
 20 24  2  0
 21 25  1  0
 21 26  1  0
 22 24  1  0
 23 27  1  0
 27 28  2  0
 27 29  1  0
 28 30  1  0
 29 31  2  0
 30 32  2  0
 31 32  1  0
 32 33  1  0
 33 34  1  0
 33 35  1  0
 33 36  1  0
 34 37  2  0
 34 38  1  0
 35 36  1  0
  4 39  1  0
  5 40  1  0
  6 41  1  0
  9 42  1  0
 10 43  1  0
 10 44  1  0
 10 45  1  0
 14 46  1  0
 14 47  1  0
 15 48  1  0
 15 49  1  0
 17 50  1  0
 18 51  1  0
 18 52  1  0
 19 53  1  0
 19 54  1  0
 20 55  1  0
 21 56  1  0
 22 57  1  0
 24 58  1  0
 25 59  1  0
 25 60  1  0
 25 61  1  0
 26 62  1  0
 26 63  1  0
 26 64  1  0
 28 65  1  0
 29 66  1  0
 30 67  1  0
 31 68  1  0
 35 69  1  0
 35 70  1  0
 36 71  1  0
 36 72  1  0
 38 73  1  0
M  END
> <Name>
6

> <AbsoluteEnergy>
73.1

> <Clean Energy>
126.617

> <Column 1>
6

> <ConfNumber>
37

> <Filter_Pass>
Failed

> <IC50_nM>
39.66

> <LogP>
7.06

> <MOL_NUMBER>
3

> <QSAR_Score_pIC50>
7.402

> <RelativeEnergy>
8.39837

> <SMILES>
Cc1ccc(NC(=O)C2(c3ccccc3C(C)C)CCN(c3ccc(C4(C(=O)O)CC4)cc3)CC2)c(Cl)c1

> <Toxicity_Alerts>
DILI, Basic N (hERG Warning)

> <Type>
Analog

> <POSE_NUMBER>
7

> <LibDockScore>
86.7334

> <HotSpots>
-6.13,-22.12,49.98,A,41,6
-2.93,-26.32,45.98,A,15,26
-4.13,-31.12,56.59,A,79,35

$$$$
7
  SciTegic05082609073D

 73 77  0  0  0  0            999 V2000
   -5.7635  -24.0182   49.0348 F   0  0  0  1  0  0
   -4.9505  -23.4156   48.1666 C   0  0  0  1  0  0
   -3.5502  -23.3640   48.3808 C   0  0  0  1  0  0
   -5.5223  -22.8260   47.0263 C   0  0  0  1  0  0
   -2.9984  -23.9718   49.5065 N   0  0  0  1  0  0
   -2.7462  -22.7026   47.4215 C   0  0  0  1  0  0
   -4.7118  -22.1808   46.0762 C   0  0  0  1  0  0
   -1.7087  -23.8198   49.9976 C   0  0  0  1  0  0
   -3.3224  -22.1153   46.2832 C   0  0  0  1  0  0
   -5.3244  -21.5735   44.8553 C   0  0  0  1  0  0
   -1.0922  -22.8006   49.7689 O   0  0  0  1  0  0
   -1.0390  -24.9334   50.8347 C   0  0  0  1  0  0
    0.4883  -24.7356   50.8139 C   0  0  0  1  0  0
   -1.3658  -26.3887   50.3155 C   0  0  0  1  0  0
   -1.6396  -24.8074   52.2788 C   0  0  0  1  0  0
    1.2250  -24.6627   49.5851 C   0  0  0  1  0  0
    1.2173  -24.6139   52.0266 C   0  0  0  1  0  0
   -2.1113  -27.3137   51.2994 C   0  0  0  1  0  0
   -3.1012  -25.2686   52.4280 C   0  0  0  1  0  0
    2.6301  -24.5224   49.6214 C   0  0  0  1  0  0
    0.5801  -24.7201   48.2172 C   0  0  0  1  0  0
    2.6101  -24.4714   52.0388 C   0  0  0  1  0  0
   -3.3012  -26.6450   51.8916 N   0  0  0  1  0  0
    3.3186  -24.4339   50.8363 C   0  0  0  1  0  0
    0.7136  -23.3817   47.4683 C   0  0  0  1  0  0
    1.1227  -25.8848   47.3663 C   0  0  0  1  0  0
   -4.5381  -27.2723   51.9516 C   0  0  0  1  0  0
   -4.6587  -28.6642   51.7343 C   0  0  0  1  0  0
   -5.7025  -26.5254   52.2335 C   0  0  0  1  0  0
   -5.9155  -29.2905   51.8028 C   0  0  0  1  0  0
   -6.9571  -27.1478   52.2867 C   0  0  0  1  0  0
   -7.0695  -28.5348   52.0819 C   0  0  0  1  0  0
   -8.4258  -29.2022   52.1745 C   0  0  0  1  0  0
   -9.0623  -29.0942   53.5687 C   0  0  0  1  0  0
   -9.3257  -29.1331   50.9486 C   0  0  0  1  0  0
   -8.6903  -30.4466   51.3378 C   0  0  0  1  0  0
   -8.9513  -28.0617   54.1895 O   0  0  0  1  0  0
   -9.7335  -30.1253   54.0888 O   0  0  0  1  0  0
   -6.6012  -22.8693   46.8776 H   0  0
   -3.6407  -24.6296   50.0540 H   0  0
   -1.6674  -22.6485   47.5680 H   0  0
   -2.6894  -21.6061   45.5565 H   0  0
   -6.0692  -20.8732   45.2334 H   0  0
   -5.8659  -22.3897   44.3771 H   0  0
   -4.6061  -21.0995   44.1864 H   0  0
   -0.4320  -26.8728   50.0296 H   0  0
   -1.9592  -26.3059   49.4050 H   0  0
   -1.5707  -23.7669   52.5962 H   0  0
   -1.0217  -25.3868   52.9648 H   0  0
    0.6779  -24.6319   52.9736 H   0  0
   -2.4327  -28.2121   50.7725 H   0  0
   -1.4326  -27.6077   52.1000 H   0  0
   -3.3758  -25.2533   53.4827 H   0  0
   -3.7522  -24.5786   51.8912 H   0  0
    3.1882  -24.4823   48.6860 H   0  0
   -0.4811  -24.9060   48.3825 H   0  0
    3.1413  -24.3897   52.9871 H   0  0
    4.4042  -24.3360   50.8439 H   0  0
    1.7730  -23.1481   47.3625 H   0  0
    0.2374  -22.6026   48.0636 H   0  0
    0.2431  -23.4450   46.4871 H   0  0
    0.9318  -26.8163   47.8992 H   0  0
    2.1996  -25.7565   47.2571 H   0  0
    0.6427  -25.9034   46.3879 H   0  0
   -3.7707  -29.2560   51.5120 H   0  0
   -5.6249  -25.4529   52.4117 H   0  0
   -5.9964  -30.3651   51.6392 H   0  0
   -7.8493  -26.5547   52.4876 H   0  0
   -8.8144  -28.6740   50.1025 H   0  0
  -10.3787  -29.0971   51.2278 H   0  0
   -9.4049  -31.1108   51.8238 H   0  0
   -7.8398  -30.6869   50.6998 H   0  0
   -9.0481  -30.9205   54.0667 H   0  0
  1  2  1  0
  2  3  2  0
  2  4  1  0
  3  5  1  0
  3  6  1  0
  4  7  2  0
  5  8  1  0
  6  9  2  0
  7  9  1  0
  7 10  1  0
  8 11  2  0
  8 12  1  0
 12 13  1  0
 12 14  1  0
 12 15  1  0
 13 16  2  0
 13 17  1  0
 14 18  1  0
 15 19  1  0
 16 20  1  0
 16 21  1  0
 17 22  2  0
 18 23  1  0
 19 23  1  0
 20 24  2  0
 21 25  1  0
 21 26  1  0
 22 24  1  0
 23 27  1  0
 27 28  2  0
 27 29  1  0
 28 30  1  0
 29 31  2  0
 30 32  2  0
 31 32  1  0
 32 33  1  0
 33 34  1  0
 33 35  1  0
 33 36  1  0
 34 37  2  0
 34 38  1  0
 35 36  1  0
  4 39  1  0
  5 40  1  0
  6 41  1  0
  9 42  1  0
 10 43  1  0
 10 44  1  0
 10 45  1  0
 14 46  1  0
 14 47  1  0
 15 48  1  0
 15 49  1  0
 17 50  1  0
 18 51  1  0
 18 52  1  0
 19 53  1  0
 19 54  1  0
 20 55  1  0
 21 56  1  0
 22 57  1  0
 24 58  1  0
 25 59  1  0
 25 60  1  0
 25 61  1  0
 26 62  1  0
 26 63  1  0
 26 64  1  0
 28 65  1  0
 29 66  1  0
 30 67  1  0
 31 68  1  0
 35 69  1  0
 35 70  1  0
 36 71  1  0
 36 72  1  0
 38 73  1  0
M  END
> <Name>
7

> <AbsoluteEnergy>
68.066

> <Clean Energy>
124.815

> <Column 1>
7

> <ConfNumber>
21

> <Filter_Pass>
Failed

> <IC50_nM>
39.92

> <LogP>
6.55

> <MOL_NUMBER>
4

> <QSAR_Score_pIC50>
7.399

> <RelativeEnergy>
4.50625

> <SMILES>
Cc1ccc(NC(=O)C2(c3ccccc3C(C)C)CCN(c3ccc(C4(C(=O)O)CC4)cc3)CC2)c(F)c1

> <Toxicity_Alerts>
DILI, Basic N (hERG Warning)

> <Type>
Analog

> <POSE_NUMBER>
1

> <LibDockScore>
142.5381

> <HotSpots>
-3.53,-22.32,46.59,A,20,9
2.27,-24.92,52.19,A,58,22
-9.33,-29.92,51.19,A,52,35

$$$$
7
  SciTegic05082609073D

 73 77  0  0  0  0            999 V2000
   -4.4086  -24.3799   48.0747 F   0  0  0  1  0  0
   -3.9069  -23.3619   47.3750 C   0  0  0  1  0  0
   -2.5649  -22.9273   47.5254 C   0  0  0  1  0  0
   -4.7684  -22.7086   46.4756 C   0  0  0  1  0  0
   -1.6391  -23.5481   48.3615 N   0  0  0  1  0  0
   -2.1430  -21.7881   46.7931 C   0  0  0  1  0  0
   -4.3278  -21.5967   45.7355 C   0  0  0  1  0  0
   -1.6206  -24.8818   48.7815 C   0  0  0  1  0  0
   -3.0126  -21.1318   45.9048 C   0  0  0  1  0  0
   -5.2581  -20.9211   44.7799 C   0  0  0  1  0  0
   -1.9870  -25.7672   48.0422 O   0  0  0  1  0  0
   -1.1141  -25.2693   50.1916 C   0  0  0  1  0  0
    0.3790  -24.8979   50.3313 C   0  0  0  1  0  0
   -1.3255  -26.8042   50.5174 C   0  0  0  1  0  0
   -2.0725  -24.4944   51.1556 C   0  0  0  1  0  0
    1.2677  -24.9103   49.2054 C   0  0  0  1  0  0
    0.9132  -24.4987   51.5866 C   0  0  0  1  0  0
   -2.2542  -27.1665   51.7092 C   0  0  0  1  0  0
   -3.5204  -25.0572   51.1613 C   0  0  0  1  0  0
    2.6190  -24.5250   49.3726 C   0  0  0  1  0  0
    0.8368  -25.3112   47.8109 C   0  0  0  1  0  0
    2.2577  -24.1168   51.7279 C   0  0  0  1  0  0
   -3.5754  -26.4743   51.6455 N   0  0  0  1  0  0
    3.1102  -24.1286   50.6208 C   0  0  0  1  0  0
    1.6444  -26.5104   47.2782 C   0  0  0  1  0  0
    0.8896  -24.1277   46.8240 C   0  0  0  1  0  0
   -4.7827  -27.0890   52.0336 C   0  0  0  1  0  0
   -6.0001  -26.3683   51.9922 C   0  0  0  1  0  0
   -4.8347  -28.4358   52.4878 C   0  0  0  1  0  0
   -7.2101  -26.9488   52.4276 C   0  0  0  1  0  0
   -6.0476  -29.0179   52.9214 C   0  0  0  1  0  0
   -7.2389  -28.2675   52.9216 C   0  0  0  1  0  0
   -8.5337  -28.8624   53.4725 C   0  0  0  1  0  0
   -9.4457  -29.6206   52.4877 C   0  0  0  1  0  0
   -8.5066  -29.3522   54.9171 C   0  0  0  1  0  0
   -9.2496  -28.0857   54.5706 C   0  0  0  1  0  0
  -10.3919  -30.2499   52.9208 O   0  0  0  1  0  0
   -9.2278  -29.5820   51.1725 O   0  0  0  1  0  0
   -5.7897  -23.0683   46.3506 H   0  0
   -0.8462  -22.9293   48.7264 H   0  0
   -1.1269  -21.4151   46.9214 H   0  0
   -2.6665  -20.2617   45.3470 H   0  0
   -6.1236  -20.6391   45.3795 H   0  0
   -5.5823  -21.7069   44.0976 H   0  0
   -4.8171  -20.0715   44.2585 H   0  0
   -0.3493  -27.2537   50.6990 H   0  0
   -1.7134  -27.2931   49.6237 H   0  0
   -2.1026  -23.4459   50.8591 H   0  0
   -1.6711  -24.5423   52.1679 H   0  0
    0.2633  -24.4886   52.4616 H   0  0
   -2.4197  -28.2438   51.7161 H   0  0
   -1.7588  -26.8967   52.6419 H   0  0
   -4.1419  -24.4368   51.8069 H   0  0
   -3.9262  -25.0113   50.1507 H   0  0
    3.2892  -24.5373   48.5131 H   0  0
   -0.2040  -25.6249   47.8905 H   0  0
    2.6366  -23.8107   52.7030 H   0  0
    4.1530  -23.8303   50.7294 H   0  0
    1.5031  -27.3496   47.9592 H   0  0
    2.6997  -26.2375   47.2698 H   0  0
    1.3159  -26.7793   46.2743 H   0  0
    1.9117  -23.7499   46.7958 H   0  0
    0.2338  -23.3408   47.1966 H   0  0
    0.5752  -24.4422   45.8289 H   0  0
   -6.0029  -25.3450   51.6167 H   0  0
   -3.9214  -29.0307   52.5018 H   0  0
   -8.1328  -26.3704   52.3812 H   0  0
   -6.0607  -30.0546   53.2578 H   0  0
   -7.5490  -29.1402   55.3926 H   0  0
   -9.1870  -30.1905   55.0665 H   0  0
  -10.3270  -28.2473   54.5369 H   0  0
   -8.6889  -27.1973   54.8614 H   0  0
   -8.2354  -29.9092   51.0698 H   0  0
  1  2  1  0
  2  3  2  0
  2  4  1  0
  3  5  1  0
  3  6  1  0
  4  7  2  0
  5  8  1  0
  6  9  2  0
  7  9  1  0
  7 10  1  0
  8 11  2  0
  8 12  1  0
 12 13  1  0
 12 14  1  0
 12 15  1  0
 13 16  2  0
 13 17  1  0
 14 18  1  0
 15 19  1  0
 16 20  1  0
 16 21  1  0
 17 22  2  0
 18 23  1  0
 19 23  1  0
 20 24  2  0
 21 25  1  0
 21 26  1  0
 22 24  1  0
 23 27  1  0
 27 28  2  0
 27 29  1  0
 28 30  1  0
 29 31  2  0
 30 32  2  0
 31 32  1  0
 32 33  1  0
 33 34  1  0
 33 35  1  0
 33 36  1  0
 34 37  2  0
 34 38  1  0
 35 36  1  0
  4 39  1  0
  5 40  1  0
  6 41  1  0
  9 42  1  0
 10 43  1  0
 10 44  1  0
 10 45  1  0
 14 46  1  0
 14 47  1  0
 15 48  1  0
 15 49  1  0
 17 50  1  0
 18 51  1  0
 18 52  1  0
 19 53  1  0
 19 54  1  0
 20 55  1  0
 21 56  1  0
 22 57  1  0
 24 58  1  0
 25 59  1  0
 25 60  1  0
 25 61  1  0
 26 62  1  0
 26 63  1  0
 26 64  1  0
 28 65  1  0
 29 66  1  0
 30 67  1  0
 31 68  1  0
 35 69  1  0
 35 70  1  0
 36 71  1  0
 36 72  1  0
 38 73  1  0
M  END
> <Name>
7

> <AbsoluteEnergy>
69.2398

> <Clean Energy>
124.815

> <Column 1>
7

> <ConfNumber>
27

> <Filter_Pass>
Failed

> <IC50_nM>
39.92

> <LogP>
6.55

> <MOL_NUMBER>
4

> <QSAR_Score_pIC50>
7.399

> <RelativeEnergy>
5.68012

> <SMILES>
Cc1ccc(NC(=O)C2(c3ccccc3C(C)C)CCN(c3ccc(C4(C(=O)O)CC4)cc3)CC2)c(F)c1

> <Toxicity_Alerts>
DILI, Basic N (hERG Warning)

> <Type>
Analog

> <POSE_NUMBER>
2

> <LibDockScore>
135.9879

> <HotSpots>
-3.53,-20.52,45.19,A,12,10
0.47,-23.32,53.78,A,67,22
-7.93,-28.32,52.38,A,59,30

$$$$
7
  SciTegic05082609073D

 73 77  0  0  0  0            999 V2000
    0.9824  -25.0864   47.3452 F   0  0  0  1  0  0
    1.4282  -24.6189   48.5129 C   0  0  0  1  0  0
    0.6118  -24.5993   49.6751 C   0  0  0  1  0  0
    2.7487  -24.1366   48.5607 C   0  0  0  1  0  0
   -0.7045  -25.0606   49.6211 N   0  0  0  1  0  0
    1.1753  -24.1120   50.8782 C   0  0  0  1  0  0
    3.2856  -23.6367   49.7593 C   0  0  0  1  0  0
   -1.6688  -24.9041   50.6106 C   0  0  0  1  0  0
    2.4917  -23.6288   50.9186 C   0  0  0  1  0  0
    4.6862  -23.1193   49.7904 C   0  0  0  1  0  0
   -1.6848  -23.9138   51.3091 O   0  0  0  1  0  0
   -2.7620  -25.9533   50.8673 C   0  0  0  1  0  0
   -4.1342  -25.2631   50.7816 C   0  0  0  1  0  0
   -2.7728  -27.2237   49.9565 C   0  0  0  1  0  0
   -2.3837  -26.5098   52.2890 C   0  0  0  1  0  0
   -4.5115  -24.4583   49.6570 C   0  0  0  1  0  0
   -5.0748  -25.4063   51.8349 C   0  0  0  1  0  0
   -3.8958  -28.2222   50.3388 C   0  0  0  1  0  0
   -2.8877  -27.9366   52.6319 C   0  0  0  1  0  0
   -5.7888  -23.8547   49.6286 C   0  0  0  1  0  0
   -3.6142  -24.1967   48.4676 C   0  0  0  1  0  0
   -6.3354  -24.7980   51.7861 C   0  0  0  1  0  0
   -4.0769  -28.3245   51.8225 N   0  0  0  1  0  0
   -6.6949  -24.0229   50.6813 C   0  0  0  1  0  0
   -3.1413  -22.7314   48.4200 C   0  0  0  1  0  0
   -4.2737  -24.6196   47.1418 C   0  0  0  1  0  0
   -5.2769  -28.7037   52.4249 C   0  0  0  1  0  0
   -5.2862  -29.3108   53.7045 C   0  0  0  1  0  0
   -6.5163  -28.4695   51.7863 C   0  0  0  1  0  0
   -6.4979  -29.6047   54.3522 C   0  0  0  1  0  0
   -7.7257  -28.7616   52.4353 C   0  0  0  1  0  0
   -7.7226  -29.3028   53.7338 C   0  0  0  1  0  0
   -9.0240  -29.5388   54.4697 C   0  0  0  1  0  0
   -9.0758  -28.8362   55.8292 C   0  0  0  1  0  0
   -9.7024  -30.8921   54.3138 C   0  0  0  1  0  0
  -10.3251  -29.6657   53.6916 C   0  0  0  1  0  0
   -9.6557  -29.3717   56.7464 O   0  0  0  1  0  0
   -8.4843  -27.6480   55.9901 O   0  0  0  1  0  0
    3.3614  -24.1507   47.6593 H   0  0
   -0.9991  -25.5836   48.7353 H   0  0
    0.5764  -24.1121   51.7889 H   0  0
    2.9005  -23.2455   51.8535 H   0  0
    4.7175  -22.3427   49.0261 H   0  0
    5.3006  -23.9459   49.4335 H   0  0
    5.0027  -22.7557   50.7680 H   0  0
   -2.9092  -26.9166   48.9196 H   0  0
   -1.8092  -27.7270   50.0352 H   0  0
   -1.2982  -26.4966   52.3868 H   0  0
   -2.7653  -25.8210   53.0427 H   0  0
   -4.8088  -26.0060   52.7054 H   0  0
   -4.8329  -27.8958   49.8878 H   0  0
   -3.6498  -29.2071   49.9420 H   0  0
   -3.1489  -27.9793   53.6893 H   0  0
   -2.0856  -28.6518   52.4497 H   0  0
   -6.0736  -23.2464   48.7701 H   0  0
   -2.7297  -24.8202   48.5983 H   0  0
   -7.0361  -24.9295   52.6106 H   0  0
   -7.6767  -23.5513   50.6394 H   0  0
   -2.5999  -22.5126   49.3404 H   0  0
   -4.0183  -22.0865   48.3641 H   0  0
   -2.4971  -22.5658   47.5565 H   0  0
   -5.2033  -24.0621   47.0272 H   0  0
   -4.5054  -25.6832   47.1972 H   0  0
   -3.6085  -24.4213   46.3014 H   0  0
   -4.3421  -29.5529   54.1926 H   0  0
   -6.5326  -28.0570   50.7775 H   0  0
   -6.4876  -30.0688   55.3384 H   0  0
   -8.6723  -28.5682   51.9307 H   0  0
  -10.2204  -31.1874   55.2263 H   0  0
   -9.1976  -31.5085   53.5700 H   0  0
  -10.1532  -29.6290   52.6159 H   0  0
  -11.1746  -29.3069   54.2727 H   0  0
   -8.9136  -27.0360   55.2527 H   0  0
  1  2  1  0
  2  3  2  0
  2  4  1  0
  3  5  1  0
  3  6  1  0
  4  7  2  0
  5  8  1  0
  6  9  2  0
  7  9  1  0
  7 10  1  0
  8 11  2  0
  8 12  1  0
 12 13  1  0
 12 14  1  0
 12 15  1  0
 13 16  2  0
 13 17  1  0
 14 18  1  0
 15 19  1  0
 16 20  1  0
 16 21  1  0
 17 22  2  0
 18 23  1  0
 19 23  1  0
 20 24  2  0
 21 25  1  0
 21 26  1  0
 22 24  1  0
 23 27  1  0
 27 28  2  0
 27 29  1  0
 28 30  1  0
 29 31  2  0
 30 32  2  0
 31 32  1  0
 32 33  1  0
 33 34  1  0
 33 35  1  0
 33 36  1  0
 34 37  2  0
 34 38  1  0
 35 36  1  0
  4 39  1  0
  5 40  1  0
  6 41  1  0
  9 42  1  0
 10 43  1  0
 10 44  1  0
 10 45  1  0
 14 46  1  0
 14 47  1  0
 15 48  1  0
 15 49  1  0
 17 50  1  0
 18 51  1  0
 18 52  1  0
 19 53  1  0
 19 54  1  0
 20 55  1  0
 21 56  1  0
 22 57  1  0
 24 58  1  0
 25 59  1  0
 25 60  1  0
 25 61  1  0
 26 62  1  0
 26 63  1  0
 26 64  1  0
 28 65  1  0
 29 66  1  0
 30 67  1  0
 31 68  1  0
 35 69  1  0
 35 70  1  0
 36 71  1  0
 36 72  1  0
 38 73  1  0
M  END
> <Name>
7

> <AbsoluteEnergy>
70.2588

> <Clean Energy>
124.815

> <Column 1>
7

> <ConfNumber>
37

> <Filter_Pass>
Failed

> <IC50_nM>
39.92

> <LogP>
6.55

> <MOL_NUMBER>
4

> <QSAR_Score_pIC50>
7.399

> <RelativeEnergy>
6.69909

> <SMILES>
Cc1ccc(NC(=O)C2(c3ccccc3C(C)C)CCN(c3ccc(C4(C(=O)O)CC4)cc3)CC2)c(F)c1

> <Toxicity_Alerts>
DILI, Basic N (hERG Warning)

> <Type>
Analog

> <POSE_NUMBER>
3

> <LibDockScore>
133.2611

> <HotSpots>
2.67,-23.92,48.98,A,32,4
-5.13,-23.32,51.38,A,54,20
-7.93,-28.32,52.38,A,59,31

$$$$
7
  SciTegic05082609073D

 73 77  0  0  0  0            999 V2000
   -0.6030  -26.3313   54.1319 F   0  0  0  1  0  0
   -0.3337  -25.6884   52.9915 C   0  0  0  1  0  0
   -1.3505  -25.4027   52.0427 C   0  0  0  1  0  0
    0.9973  -25.3001   52.7511 C   0  0  0  1  0  0
   -2.6634  -25.7966   52.2922 N   0  0  0  1  0  0
   -0.9895  -24.7080   50.8672 C   0  0  0  1  0  0
    1.3403  -24.6197   51.5702 C   0  0  0  1  0  0
   -3.7221  -25.8801   51.3902 C   0  0  0  1  0  0
    0.3383  -24.3248   50.6278 C   0  0  0  1  0  0
    2.7583  -24.2162   51.3287 C   0  0  0  1  0  0
   -3.5384  -25.6766   50.2100 O   0  0  0  1  0  0
   -5.1384  -26.2595   51.9007 C   0  0  0  1  0  0
   -5.1640  -27.7443   52.3041 C   0  0  0  1  0  0
   -6.2361  -26.0363   50.7879 C   0  0  0  1  0  0
   -5.4177  -25.1952   53.0412 C   0  0  0  1  0  0
   -6.3279  -28.4479   52.7555 C   0  0  0  1  0  0
   -3.9538  -28.4855   52.2024 C   0  0  0  1  0  0
   -6.8280  -24.6034   50.7805 C   0  0  0  1  0  0
   -5.3233  -23.7222   52.5237 C   0  0  0  1  0  0
   -6.1912  -29.7730   53.2305 C   0  0  0  1  0  0
   -7.7228  -27.8671   52.7451 C   0  0  0  1  0  0
   -3.8493  -29.8077   52.6397 C   0  0  0  1  0  0
   -5.7091  -23.6774   51.0765 N   0  0  0  1  0  0
   -4.9658  -30.4469   53.1765 C   0  0  0  1  0  0
   -8.3165  -27.7944   54.1637 C   0  0  0  1  0  0
   -8.6776  -28.6125   51.7885 C   0  0  0  1  0  0
   -4.9508  -23.0576   50.0820 C   0  0  0  1  0  0
   -3.7473  -22.3778   50.3846 C   0  0  0  1  0  0
   -5.3258  -23.1680   48.7203 C   0  0  0  1  0  0
   -2.8108  -22.1196   49.3695 C   0  0  0  1  0  0
   -4.3971  -22.9036   47.7072 C   0  0  0  1  0  0
   -3.0948  -22.5121   48.0510 C   0  0  0  1  0  0
   -2.0073  -22.5853   47.0135 C   0  0  0  1  0  0
   -1.5772  -24.0424   46.7967 C   0  0  0  1  0  0
   -0.9878  -21.4643   46.9015 C   0  0  0  1  0  0
   -2.0330  -21.6422   45.8227 C   0  0  0  1  0  0
   -0.4029  -24.3233   46.7669 O   0  0  0  1  0  0
   -2.5114  -24.9937   46.6522 O   0  0  0  1  0  0
    1.7685  -25.5289   53.4867 H   0  0
   -2.8865  -26.0690   53.3026 H   0  0
   -1.7571  -24.4651   50.1324 H   0  0
    0.5945  -23.7971   49.7091 H   0  0
    3.3310  -25.1413   51.3949 H   0  0
    3.0302  -23.6076   52.1911 H   0  0
    2.9154  -23.6951   50.3843 H   0  0
   -7.0454  -26.7504   50.9403 H   0  0
   -5.7962  -26.2404   49.8117 H   0  0
   -4.6950  -25.3356   53.8450 H   0  0
   -6.4139  -25.3645   53.4497 H   0  0
   -3.0775  -28.0045   51.7679 H   0  0
   -7.2426  -24.3802   49.7974 H   0  0
   -7.5943  -24.5154   51.5507 H   0  0
   -4.3015  -23.3603   52.6381 H   0  0
   -5.9997  -23.0905   53.0994 H   0  0
   -7.0603  -30.2811   53.6483 H   0  0
   -7.6224  -26.8513   52.3629 H   0  0
   -2.8997  -30.3371   52.5617 H   0  0
   -4.8848  -31.4668   53.5524 H   0  0
   -7.6674  -27.1729   54.7806 H   0  0
   -8.3439  -28.8010   54.5809 H   0  0
   -9.3214  -27.3733   54.1345 H   0  0
   -8.7185  -29.6563   52.0997 H   0  0
   -8.2541  -28.5644   50.7853 H   0  0
   -9.6730  -28.1688   51.8054 H   0  0
   -3.5466  -22.0542   51.4059 H   0  0
   -6.3431  -23.4604   48.4602 H   0  0
   -1.8714  -21.6187   49.6033 H   0  0
   -4.6834  -23.0011   46.6600 H   0  0
   -0.0146  -21.8381   46.5832 H   0  0
   -1.2319  -20.6339   47.5641 H   0  0
   -2.8315  -20.9057   45.9120 H   0  0
   -1.6149  -22.1111   44.9319 H   0  0
   -3.1021  -24.6698   45.8468 H   0  0
  1  2  1  0
  2  3  2  0
  2  4  1  0
  3  5  1  0
  3  6  1  0
  4  7  2  0
  5  8  1  0
  6  9  2  0
  7  9  1  0
  7 10  1  0
  8 11  2  0
  8 12  1  0
 12 13  1  0
 12 14  1  0
 12 15  1  0
 13 16  2  0
 13 17  1  0
 14 18  1  0
 15 19  1  0
 16 20  1  0
 16 21  1  0
 17 22  2  0
 18 23  1  0
 19 23  1  0
 20 24  2  0
 21 25  1  0
 21 26  1  0
 22 24  1  0
 23 27  1  0
 27 28  2  0
 27 29  1  0
 28 30  1  0
 29 31  2  0
 30 32  2  0
 31 32  1  0
 32 33  1  0
 33 34  1  0
 33 35  1  0
 33 36  1  0
 34 37  2  0
 34 38  1  0
 35 36  1  0
  4 39  1  0
  5 40  1  0
  6 41  1  0
  9 42  1  0
 10 43  1  0
 10 44  1  0
 10 45  1  0
 14 46  1  0
 14 47  1  0
 15 48  1  0
 15 49  1  0
 17 50  1  0
 18 51  1  0
 18 52  1  0
 19 53  1  0
 19 54  1  0
 20 55  1  0
 21 56  1  0
 22 57  1  0
 24 58  1  0
 25 59  1  0
 25 60  1  0
 25 61  1  0
 26 62  1  0
 26 63  1  0
 26 64  1  0
 28 65  1  0
 29 66  1  0
 30 67  1  0
 31 68  1  0
 35 69  1  0
 35 70  1  0
 36 71  1  0
 36 72  1  0
 38 73  1  0
M  END
> <Name>
7

> <AbsoluteEnergy>
82.55

> <Clean Energy>
124.815

> <Column 1>
7

> <ConfNumber>
111

> <Filter_Pass>
Failed

> <IC50_nM>
39.92

> <LogP>
6.55

> <MOL_NUMBER>
4

> <QSAR_Score_pIC50>
7.399

> <RelativeEnergy>
18.9903

> <SMILES>
Cc1ccc(NC(=O)C2(c3ccccc3C(C)C)CCN(c3ccc(C4(C(=O)O)CC4)cc3)CC2)c(F)c1

> <Toxicity_Alerts>
DILI, Basic N (hERG Warning)

> <Type>
Analog

> <POSE_NUMBER>
4

> <LibDockScore>
132.8979

> <HotSpots>
-0.33,-25.52,53.19,A,64,4
-8.73,-28.12,54.38,A,70,25
-4.93,-23.52,47.59,A,26,31

$$$$
7
  SciTegic05082609073D

 73 77  0  0  0  0            999 V2000
   -1.3845  -21.4049   46.7643 F   0  0  0  1  0  0
   -2.6156  -21.9050   46.6241 C   0  0  0  1  0  0
   -3.0043  -23.1130   47.2557 C   0  0  0  1  0  0
   -3.5317  -21.2000   45.8230 C   0  0  0  1  0  0
   -2.1093  -23.8072   48.0570 N   0  0  0  1  0  0
   -4.3258  -23.5832   47.0710 C   0  0  0  1  0  0
   -4.8403  -21.6845   45.6379 C   0  0  0  1  0  0
   -2.1379  -25.1724   48.3033 C   0  0  0  1  0  0
   -5.2313  -22.8802   46.2636 C   0  0  0  1  0  0
   -5.8171  -20.9414   44.7854 C   0  0  0  1  0  0
   -2.9490  -25.8826   47.7508 O   0  0  0  1  0  0
   -1.1391  -25.7919   49.2914 C   0  0  0  1  0  0
    0.2974  -25.4855   48.8119 C   0  0  0  1  0  0
   -1.3309  -27.3378   49.4004 C   0  0  0  1  0  0
   -1.5798  -25.3078   50.6952 C   0  0  0  1  0  0
    1.4082  -24.9503   49.5626 C   0  0  0  1  0  0
    0.5132  -25.7597   47.4353 C   0  0  0  1  0  0
   -2.7367  -27.8420   49.8121 C   0  0  0  1  0  0
   -3.0692  -25.5586   50.9920 C   0  0  0  1  0  0
    2.6250  -24.6868   48.8830 C   0  0  0  1  0  0
    1.4054  -24.6182   51.0426 C   0  0  0  1  0  0
    1.7345  -25.5144   46.8000 C   0  0  0  1  0  0
   -3.5038  -26.9712   50.7627 N   0  0  0  1  0  0
    2.7918  -24.9670   47.5248 C   0  0  0  1  0  0
    2.3856  -25.4609   51.8896 C   0  0  0  1  0  0
    1.6590  -23.1166   51.2752 C   0  0  0  1  0  0
   -4.6520  -27.4476   51.3983 C   0  0  0  1  0  0
   -5.6197  -26.5323   51.8754 C   0  0  0  1  0  0
   -4.8852  -28.8308   51.5860 C   0  0  0  1  0  0
   -6.7715  -26.9835   52.5417 C   0  0  0  1  0  0
   -6.0411  -29.2823   52.2482 C   0  0  0  1  0  0
   -6.9856  -28.3611   52.7364 C   0  0  0  1  0  0
   -8.2234  -28.8469   53.4658 C   0  0  0  1  0  0
   -9.1935  -29.6506   52.5970 C   0  0  0  1  0  0
   -8.0892  -29.2091   54.9398 C   0  0  0  1  0  0
   -8.8313  -27.9570   54.5402 C   0  0  0  1  0  0
   -9.2109  -29.4717   51.4002 O   0  0  0  1  0  0
  -10.0093  -30.5337   53.1802 O   0  0  0  1  0  0
   -3.2260  -20.2711   45.3416 H   0  0
   -1.3307  -23.2416   48.5249 H   0  0
   -4.6438  -24.5028   47.5622 H   0  0
   -6.2420  -23.2626   46.1209 H   0  0
   -5.3238  -20.8480   43.8179 H   0  0
   -5.8574  -19.9421   45.2189 H   0  0
   -6.7988  -21.4097   44.7143 H   0  0
   -1.0750  -27.7843   48.4395 H   0  0
   -0.6055  -27.7254   50.1157 H   0  0
   -1.3789  -24.2399   50.7806 H   0  0
   -0.9798  -25.8177   51.4490 H   0  0
   -0.3060  -26.1781   46.8505 H   0  0
   -2.6331  -28.8302   50.2602 H   0  0
   -3.3343  -27.9746   48.9102 H   0  0
   -3.2710  -25.2941   52.0300 H   0  0
   -3.6702  -24.9010   50.3639 H   0  0
    3.4561  -24.2519   49.4382 H   0  0
    0.4056  -24.8810   51.3881 H   0  0
    1.8591  -25.7501   45.7431 H   0  0
    3.7429  -24.7589   47.0347 H   0  0
    3.3839  -25.3049   51.4807 H   0  0
    2.1182  -26.5081   51.7482 H   0  0
    2.3470  -25.1858   52.9436 H   0  0
    0.8776  -22.5466   50.7726 H   0  0
    2.6250  -22.8529   50.8446 H   0  0
    1.6540  -22.8943   52.3423 H   0  0
   -5.4697  -25.4633   51.7241 H   0  0
   -4.1606  -29.5547   51.2131 H   0  0
   -7.5026  -26.2635   52.9095 H   0  0
   -6.2058  -30.3512   52.3838 H   0  0
   -7.0922  -28.9828   55.3177 H   0  0
   -8.7731  -30.0112   55.2173 H   0  0
   -9.9110  -28.0907   54.6066 H   0  0
   -8.2302  -27.0628   54.7053 H   0  0
  -10.5424  -29.9808   53.8961 H   0  0
  1  2  1  0
  2  3  2  0
  2  4  1  0
  3  5  1  0
  3  6  1  0
  4  7  2  0
  5  8  1  0
  6  9  2  0
  7  9  1  0
  7 10  1  0
  8 11  2  0
  8 12  1  0
 12 13  1  0
 12 14  1  0
 12 15  1  0
 13 16  2  0
 13 17  1  0
 14 18  1  0
 15 19  1  0
 16 20  1  0
 16 21  1  0
 17 22  2  0
 18 23  1  0
 19 23  1  0
 20 24  2  0
 21 25  1  0
 21 26  1  0
 22 24  1  0
 23 27  1  0
 27 28  2  0
 27 29  1  0
 28 30  1  0
 29 31  2  0
 30 32  2  0
 31 32  1  0
 32 33  1  0
 33 34  1  0
 33 35  1  0
 33 36  1  0
 34 37  2  0
 34 38  1  0
 35 36  1  0
  4 39  1  0
  5 40  1  0
  6 41  1  0
  9 42  1  0
 10 43  1  0
 10 44  1  0
 10 45  1  0
 14 46  1  0
 14 47  1  0
 15 48  1  0
 15 49  1  0
 17 50  1  0
 18 51  1  0
 18 52  1  0
 19 53  1  0
 19 54  1  0
 20 55  1  0
 21 56  1  0
 22 57  1  0
 24 58  1  0
 25 59  1  0
 25 60  1  0
 25 61  1  0
 26 62  1  0
 26 63  1  0
 26 64  1  0
 28 65  1  0
 29 66  1  0
 30 67  1  0
 31 68  1  0
 35 69  1  0
 35 70  1  0
 36 71  1  0
 36 72  1  0
 38 73  1  0
M  END
> <Name>
7

> <AbsoluteEnergy>
73.2193

> <Clean Energy>
124.815

> <Column 1>
7

> <ConfNumber>
53

> <Filter_Pass>
Failed

> <IC50_nM>
39.92

> <LogP>
6.55

> <MOL_NUMBER>
4

> <QSAR_Score_pIC50>
7.399

> <RelativeEnergy>
9.6596

> <SMILES>
Cc1ccc(NC(=O)C2(c3ccccc3C(C)C)CCN(c3ccc(C4(C(=O)O)CC4)cc3)CC2)c(F)c1

> <Toxicity_Alerts>
DILI, Basic N (hERG Warning)

> <Type>
Analog

> <POSE_NUMBER>
5

> <LibDockScore>
132.4329

> <HotSpots>
-5.13,-22.92,46.19,A,18,9
2.67,-23.92,48.98,A,32,20
-8.73,-28.12,54.38,A,70,36

$$$$
7
  SciTegic05082609073D

 73 77  0  0  0  0            999 V2000
   -4.0181  -25.0947   53.2545 F   0  0  0  1  0  0
   -5.0509  -25.2338   52.4192 C   0  0  0  1  0  0
   -5.2653  -24.3174   51.3638 C   0  0  0  1  0  0
   -5.9315  -26.3139   52.6023 C   0  0  0  1  0  0
   -4.3484  -23.3246   51.0795 N   0  0  0  1  0  0
   -6.4405  -24.4213   50.5882 C   0  0  0  1  0  0
   -7.0650  -26.4556   51.7797 C   0  0  0  1  0  0
   -2.9822  -23.4607   50.8478 C   0  0  0  1  0  0
   -7.3276  -25.4916   50.7899 C   0  0  0  1  0  0
   -7.9868  -27.6197   51.9475 C   0  0  0  1  0  0
   -2.3570  -22.4226   50.8436 O   0  0  0  1  0  0
   -2.1990  -24.7833   50.5945 C   0  0  0  1  0  0
   -1.1565  -24.5462   49.4846 C   0  0  0  1  0  0
   -1.5568  -25.1429   51.9921 C   0  0  0  1  0  0
   -3.0573  -26.0251   50.1543 C   0  0  0  1  0  0
   -1.5321  -24.1979   48.1433 C   0  0  0  1  0  0
    0.2287  -24.6640   49.7670 C   0  0  0  1  0  0
   -0.9784  -26.5735   52.1793 C   0  0  0  1  0  0
   -2.3129  -27.3625   50.2519 C   0  0  0  1  0  0
   -0.5329  -24.0558   47.1545 C   0  0  0  1  0  0
   -2.9594  -23.9569   47.6972 C   0  0  0  1  0  0
    1.2028  -24.5114   48.7715 C   0  0  0  1  0  0
   -1.9435  -27.5736   51.6701 N   0  0  0  1  0  0
    0.8217  -24.2143   47.4617 C   0  0  0  1  0  0
   -3.4315  -25.0117   46.6755 C   0  0  0  1  0  0
   -3.1543  -22.5311   47.1432 C   0  0  0  1  0  0
   -2.5118  -28.5673   52.4594 C   0  0  0  1  0  0
   -2.1564  -28.7259   53.8173 C   0  0  0  1  0  0
   -3.4762  -29.4400   51.9065 C   0  0  0  1  0  0
   -2.7459  -29.7365   54.5982 C   0  0  0  1  0  0
   -4.0672  -30.4441   52.6866 C   0  0  0  1  0  0
   -3.7043  -30.6003   54.0355 C   0  0  0  1  0  0
   -4.3443  -31.6927   54.8634 C   0  0  0  1  0  0
   -3.8334  -33.0847   54.5102 C   0  0  0  1  0  0
   -4.7762  -31.3977   56.2910 C   0  0  0  1  0  0
   -5.8179  -31.5609   55.2127 C   0  0  0  1  0  0
   -3.1117  -33.6716   55.2858 O   0  0  0  1  0  0
   -4.2041  -33.6252   53.3469 O   0  0  0  1  0  0
   -5.7356  -27.0460   53.3857 H   0  0
   -4.7355  -22.3282   51.0314 H   0  0
   -6.6600  -23.6688   49.8308 H   0  0
   -8.2243  -25.5754   50.1760 H   0  0
   -8.2980  -27.5784   52.9913 H   0  0
   -7.3481  -28.4964   51.8405 H   0  0
   -8.8302  -27.6269   51.2571 H   0  0
   -0.7613  -24.4263   52.1964 H   0  0
   -2.3064  -24.9767   52.7658 H   0  0
   -3.3851  -25.8810   49.1248 H   0  0
   -3.9504  -26.0747   50.7772 H   0  0
    0.5443  -24.8794   50.7878 H   0  0
   -0.7934  -26.7555   53.2380 H   0  0
   -0.0418  -26.6611   51.6287 H   0  0
   -2.9641  -28.1703   49.9181 H   0  0
   -1.4119  -27.3278   49.6394 H   0  0
   -0.8241  -23.8178   46.1314 H   0  0
   -3.5826  -24.0568   48.5859 H   0  0
    2.2581  -24.6246   49.0197 H   0  0
    1.5764  -24.1065   46.6826 H   0  0
   -3.3547  -25.9962   47.1370 H   0  0
   -2.7680  -24.9749   45.8115 H   0  0
   -4.4597  -24.8172   46.3703 H   0  0
   -2.4798  -22.3938   46.2980 H   0  0
   -2.8910  -21.8181   47.9244 H   0  0
   -4.1871  -22.3807   46.8289 H   0  0
   -1.4188  -28.0592   54.2640 H   0  0
   -3.7641  -29.3312   50.8609 H   0  0
   -2.4593  -29.8512   55.6436 H   0  0
   -4.8115  -31.1066   52.2449 H   0  0
   -4.6227  -30.3494   56.5470 H   0  0
   -4.7063  -32.2845   56.9209 H   0  0
   -6.3048  -32.5346   55.2676 H   0  0
   -6.2200  -30.5997   54.8926 H   0  0
   -3.9039  -32.9365   52.6134 H   0  0
  1  2  1  0
  2  3  2  0
  2  4  1  0
  3  5  1  0
  3  6  1  0
  4  7  2  0
  5  8  1  0
  6  9  2  0
  7  9  1  0
  7 10  1  0
  8 11  2  0
  8 12  1  0
 12 13  1  0
 12 14  1  0
 12 15  1  0
 13 16  2  0
 13 17  1  0
 14 18  1  0
 15 19  1  0
 16 20  1  0
 16 21  1  0
 17 22  2  0
 18 23  1  0
 19 23  1  0
 20 24  2  0
 21 25  1  0
 21 26  1  0
 22 24  1  0
 23 27  1  0
 27 28  2  0
 27 29  1  0
 28 30  1  0
 29 31  2  0
 30 32  2  0
 31 32  1  0
 32 33  1  0
 33 34  1  0
 33 35  1  0
 33 36  1  0
 34 37  2  0
 34 38  1  0
 35 36  1  0
  4 39  1  0
  5 40  1  0
  6 41  1  0
  9 42  1  0
 10 43  1  0
 10 44  1  0
 10 45  1  0
 14 46  1  0
 14 47  1  0
 15 48  1  0
 15 49  1  0
 17 50  1  0
 18 51  1  0
 18 52  1  0
 19 53  1  0
 19 54  1  0
 20 55  1  0
 21 56  1  0
 22 57  1  0
 24 58  1  0
 25 59  1  0
 25 60  1  0
 25 61  1  0
 26 62  1  0
 26 63  1  0
 26 64  1  0
 28 65  1  0
 29 66  1  0
 30 67  1  0
 31 68  1  0
 35 69  1  0
 35 70  1  0
 36 71  1  0
 36 72  1  0
 38 73  1  0
M  END
> <Name>
7

> <AbsoluteEnergy>
72.7599

> <Clean Energy>
124.815

> <Column 1>
7

> <ConfNumber>
50

> <Filter_Pass>
Failed

> <IC50_nM>
39.92

> <LogP>
6.55

> <MOL_NUMBER>
4

> <QSAR_Score_pIC50>
7.399

> <RelativeEnergy>
9.20023

> <SMILES>
Cc1ccc(NC(=O)C2(c3ccccc3C(C)C)CCN(c3ccc(C4(C(=O)O)CC4)cc3)CC2)c(F)c1

> <Toxicity_Alerts>
DILI, Basic N (hERG Warning)

> <Type>
Analog

> <POSE_NUMBER>
6

> <LibDockScore>
132.3407

> <HotSpots>
-6.33,-26.32,51.98,A,57,4
0.27,-24.92,46.38,A,19,20
-3.33,-33.72,54.98,P,58,37

$$$$
7
  SciTegic05082609073D

 73 77  0  0  0  0            999 V2000
   -4.7509  -24.0667   48.6377 F   0  0  0  1  0  0
   -4.2101  -23.2285   47.7507 C   0  0  0  1  0  0
   -2.8388  -22.8743   47.7931 C   0  0  0  1  0  0
   -5.0500  -22.6821   46.7656 C   0  0  0  1  0  0
   -1.9578  -23.3924   48.7335 N   0  0  0  1  0  0
   -2.3477  -21.9397   46.8518 C   0  0  0  1  0  0
   -4.5488  -21.7638   45.8233 C   0  0  0  1  0  0
   -1.8229  -24.7323   49.0804 C   0  0  0  1  0  0
   -3.1952  -21.3917   45.8734 C   0  0  0  1  0  0
   -5.4579  -21.1929   44.7801 C   0  0  0  1  0  0
   -2.4270  -25.5937   48.4794 O   0  0  0  1  0  0
   -0.9015  -25.1409   50.2405 C   0  0  0  1  0  0
    0.5250  -24.6029   50.0568 C   0  0  0  1  0  0
   -1.6220  -24.6243   51.5204 C   0  0  0  1  0  0
   -0.8257  -26.6729   50.5079 C   0  0  0  1  0  0
    1.1619  -24.5543   48.7741 C   0  0  0  1  0  0
    1.2556  -24.1342   51.1800 C   0  0  0  1  0  0
   -3.0733  -25.1324   51.6527 C   0  0  0  1  0  0
   -2.1595  -27.4086   50.7605 C   0  0  0  1  0  0
    2.4775  -24.0458   48.6686 C   0  0  0  1  0  0
    0.5063  -25.0207   47.4920 C   0  0  0  1  0  0
    2.5596  -23.6331   51.0516 C   0  0  0  1  0  0
   -3.2712  -26.5933   51.3609 N   0  0  0  1  0  0
    3.1713  -23.5901   49.7957 C   0  0  0  1  0  0
    0.1930  -23.8431   46.5450 C   0  0  0  1  0  0
    1.3369  -26.1087   46.7819 C   0  0  0  1  0  0
   -4.5130  -27.1911   51.6090 C   0  0  0  1  0  0
   -5.6510  -26.3954   51.8911 C   0  0  0  1  0  0
   -4.6777  -28.5992   51.5798 C   0  0  0  1  0  0
   -6.8990  -26.9854   52.1520 C   0  0  0  1  0  0
   -5.9272  -29.1888   51.8378 C   0  0  0  1  0  0
   -7.0420  -28.3856   52.1306 C   0  0  0  1  0  0
   -8.3859  -29.0264   52.4268 C   0  0  0  1  0  0
   -8.9151  -28.7411   53.8383 C   0  0  0  1  0  0
   -8.6836  -30.3881   51.8079 C   0  0  0  1  0  0
   -9.3988  -29.1585   51.2950 C   0  0  0  1  0  0
   -8.8674  -27.6089   54.2716 O   0  0  0  1  0  0
   -9.4166  -29.7477   54.5655 O   0  0  0  1  0  0
   -6.1001  -22.9721   46.7306 H   0  0
   -1.3230  -22.6948   49.2387 H   0  0
   -1.3000  -21.6410   46.8855 H   0  0
   -2.8010  -20.6762   45.1517 H   0  0
   -6.2741  -20.7332   45.3375 H   0  0
   -5.8708  -22.0579   44.2611 H   0  0
   -4.9695  -20.4931   44.1019 H   0  0
   -1.6301  -23.5344   51.5073 H   0  0
   -1.0564  -24.9408   52.3967 H   0  0
   -0.3304  -27.1451   49.6595 H   0  0
   -0.1754  -26.8404   51.3665 H   0  0
    0.7922  -24.1644   52.1661 H   0  0
   -3.4220  -24.9312   52.6656 H   0  0
   -3.7081  -24.5560   50.9797 H   0  0
   -1.9672  -28.2593   51.4143 H   0  0
   -2.5100  -27.8222   49.8149 H   0  0
    2.9599  -24.0081   47.6919 H   0  0
   -0.4448  -25.4730   47.7730 H   0  0
    3.0958  -23.2773   51.9314 H   0  0
    4.1852  -23.2030   49.6942 H   0  0
    1.1260  -23.3301   46.3119 H   0  0
   -0.4706  -23.1507   47.0631 H   0  0
   -0.2779  -24.2025   45.6300 H   0  0
    1.4509  -26.9532   47.4616 H   0  0
    2.3224  -25.6994   46.5598 H   0  0
    0.8452  -26.4279   45.8629 H   0  0
   -5.5567  -25.3096   51.9059 H   0  0
   -3.8214  -29.2346   51.3536 H   0  0
   -7.7610  -26.3557   52.3721 H   0  0
   -6.0317  -30.2734   51.8106 H   0  0
   -9.3266  -30.9878   52.4521 H   0  0
   -7.8879  -30.7018   51.1322 H   0  0
   -8.9842  -28.8188   50.3459 H   0  0
  -10.4220  -29.1039   51.6668 H   0  0
   -8.6472  -30.4610   54.6078 H   0  0
  1  2  1  0
  2  3  2  0
  2  4  1  0
  3  5  1  0
  3  6  1  0
  4  7  2  0
  5  8  1  0
  6  9  2  0
  7  9  1  0
  7 10  1  0
  8 11  2  0
  8 12  1  0
 12 13  1  0
 12 14  1  0
 12 15  1  0
 13 16  2  0
 13 17  1  0
 14 18  1  0
 15 19  1  0
 16 20  1  0
 16 21  1  0
 17 22  2  0
 18 23  1  0
 19 23  1  0
 20 24  2  0
 21 25  1  0
 21 26  1  0
 22 24  1  0
 23 27  1  0
 27 28  2  0
 27 29  1  0
 28 30  1  0
 29 31  2  0
 30 32  2  0
 31 32  1  0
 32 33  1  0
 33 34  1  0
 33 35  1  0
 33 36  1  0
 34 37  2  0
 34 38  1  0
 35 36  1  0
  4 39  1  0
  5 40  1  0
  6 41  1  0
  9 42  1  0
 10 43  1  0
 10 44  1  0
 10 45  1  0
 14 46  1  0
 14 47  1  0
 15 48  1  0
 15 49  1  0
 17 50  1  0
 18 51  1  0
 18 52  1  0
 19 53  1  0
 19 54  1  0
 20 55  1  0
 21 56  1  0
 22 57  1  0
 24 58  1  0
 25 59  1  0
 25 60  1  0
 25 61  1  0
 26 62  1  0
 26 63  1  0
 26 64  1  0
 28 65  1  0
 29 66  1  0
 30 67  1  0
 31 68  1  0
 35 69  1  0
 35 70  1  0
 36 71  1  0
 36 72  1  0
 38 73  1  0
M  END
> <Name>
7

> <AbsoluteEnergy>
65.7458

> <Clean Energy>
124.815

> <Column 1>
7

> <ConfNumber>
14

> <Filter_Pass>
Failed

> <IC50_nM>
39.92

> <LogP>
6.55

> <MOL_NUMBER>
4

> <QSAR_Score_pIC50>
7.399

> <RelativeEnergy>
2.1861

> <SMILES>
Cc1ccc(NC(=O)C2(c3ccccc3C(C)C)CCN(c3ccc(C4(C(=O)O)CC4)cc3)CC2)c(F)c1

> <Toxicity_Alerts>
DILI, Basic N (hERG Warning)

> <Type>
Analog

> <POSE_NUMBER>
7

> <LibDockScore>
132.062

> <HotSpots>
-6.33,-21.32,44.98,A,9,10
2.67,-23.92,48.98,A,32,24
-8.53,-31.32,51.19,A,51,35

$$$$
7
  SciTegic05082609073D

 73 77  0  0  0  0            999 V2000
   -5.0367  -24.1594   48.7652 F   0  0  0  1  0  0
   -4.4016  -23.3502   47.9146 C   0  0  0  1  0  0
   -3.0364  -23.0094   48.0815 C   0  0  0  1  0  0
   -5.1348  -22.8207   46.8391 C   0  0  0  1  0  0
   -2.2576  -23.5121   49.1157 N   0  0  0  1  0  0
   -2.4442  -22.1047   47.1697 C   0  0  0  1  0  0
   -4.5325  -21.9325   45.9276 C   0  0  0  1  0  0
   -2.1344  -24.8502   49.4740 C   0  0  0  1  0  0
   -3.1855  -21.5733   46.1000 C   0  0  0  1  0  0
   -5.3286  -21.3792   44.7870 C   0  0  0  1  0  0
   -2.7122  -25.7155   48.8532 O   0  0  0  1  0  0
   -1.2597  -25.2516   50.6722 C   0  0  0  1  0  0
    0.1605  -24.6778   50.5633 C   0  0  0  1  0  0
   -2.0527  -24.7685   51.9219 C   0  0  0  1  0  0
   -1.1596  -26.7847   50.9252 C   0  0  0  1  0  0
    0.8709  -24.6322   49.3196 C   0  0  0  1  0  0
    0.8106  -24.1714   51.7191 C   0  0  0  1  0  0
   -3.4959  -25.3123   51.9786 C   0  0  0  1  0  0
   -2.4858  -27.5548   51.1050 C   0  0  0  1  0  0
    2.1765  -24.0897   49.2828 C   0  0  0  1  0  0
    0.3049  -25.1368   48.0096 C   0  0  0  1  0  0
    2.1062  -23.6369   51.6589 C   0  0  0  1  0  0
   -3.6442  -26.7737   51.6608 N   0  0  0  1  0  0
    2.7901  -23.5973   50.4407 C   0  0  0  1  0  0
    0.0592  -23.9879   47.0090 C   0  0  0  1  0  0
    1.1814  -26.2445   47.3909 C   0  0  0  1  0  0
   -4.8816  -27.4037   51.8421 C   0  0  0  1  0  0
   -6.0483  -26.6395   52.0923 C   0  0  0  1  0  0
   -5.0131  -28.8141   51.7752 C   0  0  0  1  0  0
   -7.2926  -27.2622   52.2863 C   0  0  0  1  0  0
   -6.2587  -29.4363   51.9663 C   0  0  0  1  0  0
   -7.4029  -28.6643   52.2282 C   0  0  0  1  0  0
   -8.7432  -29.3407   52.4523 C   0  0  0  1  0  0
   -9.3525  -29.0746   53.8350 C   0  0  0  1  0  0
   -8.9730  -30.7072   51.8152 C   0  0  0  1  0  0
   -9.6921  -29.4944   51.2689 C   0  0  0  1  0  0
   -9.3256  -27.9495   54.2881 O   0  0  0  1  0  0
   -9.8993  -30.0899   54.5160 O   0  0  0  1  0  0
   -6.1803  -23.1004   46.7092 H   0  0
   -1.6998  -22.8031   49.6910 H   0  0
   -1.4009  -21.8162   47.2979 H   0  0
   -2.7139  -20.8809   45.4027 H   0  0
   -6.1889  -20.8966   45.2507 H   0  0
   -5.7004  -22.2529   44.2518 H   0  0
   -4.7676  -20.7025   44.1425 H   0  0
   -2.0865  -23.6790   51.9210 H   0  0
   -1.5220  -25.0827   52.8206 H   0  0
   -0.6132  -27.2342   50.0961 H   0  0
   -0.5472  -26.9477   51.8120 H   0  0
    0.2905  -24.1985   52.6766 H   0  0
   -3.8972  -25.1323   52.9759 H   0  0
   -4.1117  -24.7426   51.2827 H   0  0
   -2.3043  -28.4090   51.7573 H   0  0
   -2.7808  -27.9644   50.1389 H   0  0
    2.7147  -24.0544   48.3356 H   0  0
   -0.6638  -25.5816   48.2374 H   0  0
    2.5796  -23.2524   52.5623 H   0  0
    3.7977  -23.1845   50.3924 H   0  0
    1.0067  -23.4812   46.8259 H   0  0
   -0.6378  -23.2811   47.4594 H   0  0
   -0.3477  -24.3746   46.0747 H   0  0
    1.2473  -27.0685   48.1014 H   0  0
    2.1803  -25.8409   47.2254 H   0  0
    0.7540  -26.5911   46.4500 H   0  0
   -5.9794  -25.5525   52.1349 H   0  0
   -4.1339  -29.4255   51.5723 H   0  0
   -8.1772  -26.6565   52.4828 H   0  0
   -6.3373  -30.5221   51.9111 H   0  0
   -9.6329  -31.3258   52.4235 H   0  0
   -8.1353  -30.9977   51.1811 H   0  0
   -9.2376  -29.1404   50.3436 H   0  0
  -10.7343  -29.4676   51.5870 H   0  0
   -9.1364  -30.8074   54.5918 H   0  0
  1  2  1  0
  2  3  2  0
  2  4  1  0
  3  5  1  0
  3  6  1  0
  4  7  2  0
  5  8  1  0
  6  9  2  0
  7  9  1  0
  7 10  1  0
  8 11  2  0
  8 12  1  0
 12 13  1  0
 12 14  1  0
 12 15  1  0
 13 16  2  0
 13 17  1  0
 14 18  1  0
 15 19  1  0
 16 20  1  0
 16 21  1  0
 17 22  2  0
 18 23  1  0
 19 23  1  0
 20 24  2  0
 21 25  1  0
 21 26  1  0
 22 24  1  0
 23 27  1  0
 27 28  2  0
 27 29  1  0
 28 30  1  0
 29 31  2  0
 30 32  2  0
 31 32  1  0
 32 33  1  0
 33 34  1  0
 33 35  1  0
 33 36  1  0
 34 37  2  0
 34 38  1  0
 35 36  1  0
  4 39  1  0
  5 40  1  0
  6 41  1  0
  9 42  1  0
 10 43  1  0
 10 44  1  0
 10 45  1  0
 14 46  1  0
 14 47  1  0
 15 48  1  0
 15 49  1  0
 17 50  1  0
 18 51  1  0
 18 52  1  0
 19 53  1  0
 19 54  1  0
 20 55  1  0
 21 56  1  0
 22 57  1  0
 24 58  1  0
 25 59  1  0
 25 60  1  0
 25 61  1  0
 26 62  1  0
 26 63  1  0
 26 64  1  0
 28 65  1  0
 29 66  1  0
 30 67  1  0
 31 68  1  0
 35 69  1  0
 35 70  1  0
 36 71  1  0
 36 72  1  0
 38 73  1  0
M  END
> <Name>
7

> <AbsoluteEnergy>
65.7458

> <Clean Energy>
124.815

> <Column 1>
7

> <ConfNumber>
14

> <Filter_Pass>
Failed

> <IC50_nM>
39.92

> <LogP>
6.55

> <MOL_NUMBER>
4

> <QSAR_Score_pIC50>
7.399

> <RelativeEnergy>
2.1861

> <SMILES>
Cc1ccc(NC(=O)C2(c3ccccc3C(C)C)CCN(c3ccc(C4(C(=O)O)CC4)cc3)CC2)c(F)c1

> <Toxicity_Alerts>
DILI, Basic N (hERG Warning)

> <Type>
Analog

> <POSE_NUMBER>
8

> <LibDockScore>
129.8602

> <HotSpots>
-2.53,-22.32,48.19,A,29,6
0.47,-23.32,53.78,A,67,22
-10.33,-29.72,49.78,A,35,36

$$$$
7
  SciTegic05082609073D

 73 77  0  0  0  0            999 V2000
   -8.5328  -29.1394   51.3488 F   0  0  0  1  0  0
   -8.7475  -29.1431   52.6640 C   0  0  0  1  0  0
   -8.0388  -28.2868   53.5427 C   0  0  0  1  0  0
   -9.7237  -30.0208   53.1730 C   0  0  0  1  0  0
   -7.0505  -27.4099   53.1303 N   0  0  0  1  0  0
   -8.3434  -28.3139   54.9197 C   0  0  0  1  0  0
  -10.0123  -30.0488   54.5509 C   0  0  0  1  0  0
   -6.0087  -27.7162   52.2731 C   0  0  0  1  0  0
   -9.3186  -29.1882   55.4208 C   0  0  0  1  0  0
  -11.0457  -30.9803   55.0964 C   0  0  0  1  0  0
   -5.8259  -28.8628   51.9224 O   0  0  0  1  0  0
   -5.0625  -26.6031   51.7926 C   0  0  0  1  0  0
   -3.9078  -27.2310   50.9764 C   0  0  0  1  0  0
   -5.8957  -25.5624   50.9370 C   0  0  0  1  0  0
   -4.5031  -25.7529   53.0220 C   0  0  0  1  0  0
   -2.9474  -28.1403   51.5335 C   0  0  0  1  0  0
   -3.7756  -26.9162   49.5985 C   0  0  0  1  0  0
   -5.0724  -24.3308   50.4205 C   0  0  0  1  0  0
   -4.3317  -24.2442   52.7496 C   0  0  0  1  0  0
   -1.8101  -28.4997   50.7720 C   0  0  0  1  0  0
   -3.0796  -28.7715   52.9026 C   0  0  0  1  0  0
   -2.6726  -27.3319   48.8424 C   0  0  0  1  0  0
   -3.9237  -24.1158   51.3379 N   0  0  0  1  0  0
   -1.6694  -28.0948   49.4419 C   0  0  0  1  0  0
   -1.8614  -28.4862   53.8094 C   0  0  0  1  0  0
   -3.3259  -30.2879   52.7936 C   0  0  0  1  0  0
   -2.5935  -24.0224   50.9346 C   0  0  0  1  0  0
   -2.2175  -23.6516   49.6230 C   0  0  0  1  0  0
   -1.5757  -24.3552   51.8574 C   0  0  0  1  0  0
   -0.8698  -23.7263   49.2222 C   0  0  0  1  0  0
   -0.2372  -24.4254   51.4617 C   0  0  0  1  0  0
    0.1183  -24.1526   50.1314 C   0  0  0  1  0  0
    1.5558  -24.3519   49.7024 C   0  0  0  1  0  0
    1.6854  -25.0255   48.3311 C   0  0  0  1  0  0
    2.5671  -24.7241   50.7769 C   0  0  0  1  0  0
    2.6301  -23.3612   50.1281 C   0  0  0  1  0  0
    1.7878  -24.3419   47.3342 O   0  0  0  1  0  0
    1.6764  -26.3577   48.2651 O   0  0  0  1  0  0
  -10.2605  -30.6841   52.4948 H   0  0
   -7.0962  -26.4093   53.5067 H   0  0
   -7.8149  -27.6479   55.6018 H   0  0
   -9.5398  -29.2009   56.4880 H   0  0
  -10.7239  -31.9700   54.7722 H   0  0
  -11.9524  -30.7431   54.5398 H   0  0
  -11.1847  -30.9150   56.1755 H   0  0
   -6.3258  -26.0792   50.0791 H   0  0
   -6.7272  -25.1978   51.5402 H   0  0
   -5.1773  -25.8782   53.8693 H   0  0
   -3.5387  -26.1629   53.3219 H   0  0
   -4.5577  -26.3322   49.1134 H   0  0
   -4.7042  -24.5329   49.4147 H   0  0
   -5.7054  -23.4435   50.4134 H   0  0
   -3.5560  -23.8363   53.3977 H   0  0
   -5.2792  -23.7296   52.9096 H   0  0
   -1.0284  -29.1043   51.2320 H   0  0
   -3.9465  -28.3078   53.3732 H   0  0
   -2.5978  -27.0606   47.7894 H   0  0
   -0.7807  -28.3734   48.8756 H   0  0
   -1.7619  -27.4057   53.9133 H   0  0
   -0.9715  -28.8732   53.3130 H   0  0
   -1.9862  -28.9531   54.7864 H   0  0
   -2.4894  -30.7421   52.2624 H   0  0
   -4.2411  -30.4549   52.2257 H   0  0
   -3.4187  -30.7271   53.7868 H   0  0
   -2.9745  -23.3063   48.9188 H   0  0
   -1.8393  -24.5605   52.8949 H   0  0
   -0.5900  -23.4533   48.2047 H   0  0
    0.5316  -24.6923   52.1869 H   0  0
    3.3370  -25.3905   50.3881 H   0  0
    2.1276  -24.6754   51.7732 H   0  0
    2.2247  -22.5868   50.7792 H   0  0
    3.4329  -23.3023   49.3931 H   0  0
    0.7785  -26.6493   48.7247 H   0  0
  1  2  1  0
  2  3  2  0
  2  4  1  0
  3  5  1  0
  3  6  1  0
  4  7  2  0
  5  8  1  0
  6  9  2  0
  7  9  1  0
  7 10  1  0
  8 11  2  0
  8 12  1  0
 12 13  1  0
 12 14  1  0
 12 15  1  0
 13 16  2  0
 13 17  1  0
 14 18  1  0
 15 19  1  0
 16 20  1  0
 16 21  1  0
 17 22  2  0
 18 23  1  0
 19 23  1  0
 20 24  2  0
 21 25  1  0
 21 26  1  0
 22 24  1  0
 23 27  1  0
 27 28  2  0
 27 29  1  0
 28 30  1  0
 29 31  2  0
 30 32  2  0
 31 32  1  0
 32 33  1  0
 33 34  1  0
 33 35  1  0
 33 36  1  0
 34 37  2  0
 34 38  1  0
 35 36  1  0
  4 39  1  0
  5 40  1  0
  6 41  1  0
  9 42  1  0
 10 43  1  0
 10 44  1  0
 10 45  1  0
 14 46  1  0
 14 47  1  0
 15 48  1  0
 15 49  1  0
 17 50  1  0
 18 51  1  0
 18 52  1  0
 19 53  1  0
 19 54  1  0
 20 55  1  0
 21 56  1  0
 22 57  1  0
 24 58  1  0
 25 59  1  0
 25 60  1  0
 25 61  1  0
 26 62  1  0
 26 63  1  0
 26 64  1  0
 28 65  1  0
 29 66  1  0
 30 67  1  0
 31 68  1  0
 35 69  1  0
 35 70  1  0
 36 71  1  0
 36 72  1  0
 38 73  1  0
M  END
> <Name>
7

> <AbsoluteEnergy>
77.947

> <Clean Energy>
124.815

> <Column 1>
7

> <ConfNumber>
80

> <Filter_Pass>
Failed

> <IC50_nM>
39.92

> <LogP>
6.55

> <MOL_NUMBER>
4

> <QSAR_Score_pIC50>
7.399

> <RelativeEnergy>
14.3873

> <SMILES>
Cc1ccc(NC(=O)C2(c3ccccc3C(C)C)CCN(c3ccc(C4(C(=O)O)CC4)cc3)CC2)c(F)c1

> <Toxicity_Alerts>
DILI, Basic N (hERG Warning)

> <Type>
Analog

> <POSE_NUMBER>
9

> <LibDockScore>
129.7342

> <HotSpots>
-9.53,-30.12,52.78,A,62,4
-8.73,-28.12,54.38,A,70,6
-5.33,-24.12,49.78,A,36,18

$$$$
7
  SciTegic05082609073D

 73 77  0  0  0  0            999 V2000
    0.1519  -24.4815   52.8355 F   0  0  0  1  0  0
   -0.5982  -25.5802   52.9494 C   0  0  0  1  0  0
   -1.6173  -25.8866   52.0103 C   0  0  0  1  0  0
   -0.3486  -26.4322   54.0400 C   0  0  0  1  0  0
   -1.8961  -24.9848   50.9772 N   0  0  0  1  0  0
   -2.3292  -27.1018   52.1833 C   0  0  0  1  0  0
   -1.0921  -27.6130   54.2125 C   0  0  0  1  0  0
   -2.8416  -25.0976   49.9640 C   0  0  0  1  0  0
   -2.0739  -27.9488   53.2683 C   0  0  0  1  0  0
   -0.8425  -28.5016   55.3852 C   0  0  0  1  0  0
   -3.3255  -26.1670   49.6732 O   0  0  0  1  0  0
   -3.3296  -23.8512   49.2173 C   0  0  0  1  0  0
   -2.2897  -23.3248   48.2094 C   0  0  0  1  0  0
   -4.7162  -24.0887   48.5120 C   0  0  0  1  0  0
   -3.6794  -22.8313   50.3688 C   0  0  0  1  0  0
   -1.4634  -24.1415   47.3480 C   0  0  0  1  0  0
   -2.1293  -21.9142   48.1168 C   0  0  0  1  0  0
   -5.9673  -24.0431   49.4364 C   0  0  0  1  0  0
   -4.6331  -23.4091   51.4490 C   0  0  0  1  0  0
   -0.5078  -23.4998   46.5199 C   0  0  0  1  0  0
   -1.4817  -25.6615   47.2020 C   0  0  0  1  0  0
   -1.1904  -21.3155   47.2674 C   0  0  0  1  0  0
   -5.6033  -24.3679   50.8409 N   0  0  0  1  0  0
   -0.3694  -22.1119   46.4736 C   0  0  0  1  0  0
   -2.8088  -26.3078   46.7710 C   0  0  0  1  0  0
   -0.7148  -26.4387   48.2915 C   0  0  0  1  0  0
   -6.0564  -25.5182   51.4868 C   0  0  0  1  0  0
   -5.2131  -26.2105   52.3856 C   0  0  0  1  0  0
   -7.3484  -26.0388   51.2422 C   0  0  0  1  0  0
   -5.6197  -27.4145   52.9749 C   0  0  0  1  0  0
   -7.7616  -27.2455   51.8394 C   0  0  0  1  0  0
   -6.8867  -27.9514   52.6869 C   0  0  0  1  0  0
   -7.2824  -29.2879   53.2781 C   0  0  0  1  0  0
   -7.6932  -29.2282   54.7476 C   0  0  0  1  0  0
   -7.8786  -30.3640   52.3832 C   0  0  0  1  0  0
   -6.4491  -30.4865   52.8479 C   0  0  0  1  0  0
   -6.8302  -29.3268   55.5900 O   0  0  0  1  0  0
   -8.9758  -29.0851   55.0909 O   0  0  0  1  0  0
    0.4292  -26.1746   54.7589 H   0  0
   -1.3051  -24.0929   50.9655 H   0  0
   -3.0911  -27.3818   51.4559 H   0  0
   -2.6404  -28.8733   53.3800 H   0  0
   -0.9755  -27.8579   56.2548 H   0  0
    0.2184  -28.7451   55.3284 H   0  0
   -1.4758  -29.3881   55.4179 H   0  0
   -4.8388  -23.3411   47.7283 H   0  0
   -4.6910  -25.0577   48.0135 H   0  0
   -2.7550  -22.5127   50.8505 H   0  0
   -4.1411  -21.9470   49.9297 H   0  0
   -2.7623  -21.2740   48.7313 H   0  0
   -6.7047  -24.7631   49.0816 H   0  0
   -6.4050  -23.0455   49.4008 H   0  0
   -4.0464  -23.9252   52.2090 H   0  0
   -5.1817  -22.5936   51.9203 H   0  0
    0.1427  -24.1132   45.8965 H   0  0
   -0.8737  -25.7838   46.3056 H   0  0
   -1.1027  -20.2297   47.2279 H   0  0
    0.3751  -21.6552   45.8215 H   0  0
   -3.0769  -25.8432   45.8222 H   0  0
   -3.5488  -25.9996   47.5096 H   0  0
   -2.7456  -27.3928   46.6881 H   0  0
   -1.1521  -26.1561   49.2491 H   0  0
    0.3142  -26.0799   48.2713 H   0  0
   -0.7619  -27.5166   48.1369 H   0  0
   -4.2314  -25.8012   52.6238 H   0  0
   -8.0313  -25.5007   50.5848 H   0  0
   -4.9513  -27.9370   53.6593 H   0  0
   -8.7613  -27.6339   51.6449 H   0  0
   -7.9379  -30.0341   51.3460 H   0  0
   -8.5415  -31.0253   52.9412 H   0  0
   -6.3486  -31.2136   53.6537 H   0  0
   -5.7451  -30.2209   52.0593 H   0  0
   -9.4629  -29.8834   54.6136 H   0  0
  1  2  1  0
  2  3  2  0
  2  4  1  0
  3  5  1  0
  3  6  1  0
  4  7  2  0
  5  8  1  0
  6  9  2  0
  7  9  1  0
  7 10  1  0
  8 11  2  0
  8 12  1  0
 12 13  1  0
 12 14  1  0
 12 15  1  0
 13 16  2  0
 13 17  1  0
 14 18  1  0
 15 19  1  0
 16 20  1  0
 16 21  1  0
 17 22  2  0
 18 23  1  0
 19 23  1  0
 20 24  2  0
 21 25  1  0
 21 26  1  0
 22 24  1  0
 23 27  1  0
 27 28  2  0
 27 29  1  0
 28 30  1  0
 29 31  2  0
 30 32  2  0
 31 32  1  0
 32 33  1  0
 33 34  1  0
 33 35  1  0
 33 36  1  0
 34 37  2  0
 34 38  1  0
 35 36  1  0
  4 39  1  0
  5 40  1  0
  6 41  1  0
  9 42  1  0
 10 43  1  0
 10 44  1  0
 10 45  1  0
 14 46  1  0
 14 47  1  0
 15 48  1  0
 15 49  1  0
 17 50  1  0
 18 51  1  0
 18 52  1  0
 19 53  1  0
 19 54  1  0
 20 55  1  0
 21 56  1  0
 22 57  1  0
 24 58  1  0
 25 59  1  0
 25 60  1  0
 25 61  1  0
 26 62  1  0
 26 63  1  0
 26 64  1  0
 28 65  1  0
 29 66  1  0
 30 67  1  0
 31 68  1  0
 35 69  1  0
 35 70  1  0
 36 71  1  0
 36 72  1  0
 38 73  1  0
M  END
> <Name>
7

> <AbsoluteEnergy>
78.6533

> <Clean Energy>
124.815

> <Column 1>
7

> <ConfNumber>
87

> <Filter_Pass>
Failed

> <IC50_nM>
39.92

> <LogP>
6.55

> <MOL_NUMBER>
4

> <QSAR_Score_pIC50>
7.399

> <RelativeEnergy>
15.0936

> <SMILES>
Cc1ccc(NC(=O)C2(c3ccccc3C(C)C)CCN(c3ccc(C4(C(=O)O)CC4)cc3)CC2)c(F)c1

> <Toxicity_Alerts>
DILI, Basic N (hERG Warning)

> <Type>
Analog

> <POSE_NUMBER>
10

> <LibDockScore>
129.3741

> <HotSpots>
-0.33,-25.52,53.19,A,64,1
-5.13,-23.32,51.38,A,54,19
-9.33,-29.92,51.19,A,52,35

$$$$
7
  SciTegic05082609073D

 73 77  0  0  0  0            999 V2000
    0.6225  -22.5585   47.8808 F   0  0  0  1  0  0
    1.3894  -23.1289   48.8112 C   0  0  0  1  0  0
    0.9660  -24.2487   49.5716 C   0  0  0  1  0  0
    2.6744  -22.5855   49.0235 C   0  0  0  1  0  0
   -0.2824  -24.8480   49.4927 N   0  0  0  1  0  0
    1.8642  -24.8260   50.4995 C   0  0  0  1  0  0
    3.5550  -23.1600   49.9636 C   0  0  0  1  0  0
   -1.5403  -24.2636   49.5590 C   0  0  0  1  0  0
    3.1446  -24.2876   50.6940 C   0  0  0  1  0  0
    4.9178  -22.5880   50.1924 C   0  0  0  1  0  0
   -1.6843  -23.0841   49.3381 O   0  0  0  1  0  0
   -2.7336  -25.1481   49.9914 C   0  0  0  1  0  0
   -4.1201  -24.4765   49.8825 C   0  0  0  1  0  0
   -2.2842  -25.4595   51.4826 C   0  0  0  1  0  0
   -2.8554  -26.4937   49.1892 C   0  0  0  1  0  0
   -4.6086  -23.8392   48.6903 C   0  0  0  1  0  0
   -4.9984  -24.5164   50.9988 C   0  0  0  1  0  0
   -1.7631  -26.8893   51.6896 C   0  0  0  1  0  0
   -3.5106  -27.6336   50.0057 C   0  0  0  1  0  0
   -5.8267  -23.1188   48.7329 C   0  0  0  1  0  0
   -3.9128  -23.9082   47.3466 C   0  0  0  1  0  0
   -6.2212  -23.8361   51.0091 C   0  0  0  1  0  0
   -2.8085  -27.8769   51.3030 N   0  0  0  1  0  0
   -6.6239  -23.1088   49.8855 C   0  0  0  1  0  0
   -3.4740  -22.5190   46.8287 C   0  0  0  1  0  0
   -4.7961  -24.6138   46.2992 C   0  0  0  1  0  0
   -3.1392  -28.9353   52.1453 C   0  0  0  1  0  0
   -2.3858  -29.1763   53.3182 C   0  0  0  1  0  0
   -4.2436  -29.7737   51.8625 C   0  0  0  1  0  0
   -2.8101  -30.1275   54.2601 C   0  0  0  1  0  0
   -4.6631  -30.7332   52.7998 C   0  0  0  1  0  0
   -3.9850  -30.8647   54.0274 C   0  0  0  1  0  0
   -4.5473  -31.7681   55.1011 C   0  0  0  1  0  0
   -5.0490  -30.9274   56.2763 C   0  0  0  1  0  0
   -5.3008  -33.0385   54.7197 C   0  0  0  1  0  0
   -3.9370  -33.1334   55.3607 C   0  0  0  1  0  0
   -6.0947  -30.3067   56.1667 O   0  0  0  1  0  0
   -4.3167  -30.8519   57.3854 O   0  0  0  1  0  0
    2.9901  -21.7113   48.4541 H   0  0
   -0.2751  -25.9100   49.3624 H   0  0
    1.5569  -25.7016   51.0714 H   0  0
    3.8231  -24.7454   51.4139 H   0  0
    4.7369  -21.5453   50.4536 H   0  0
    5.3850  -22.5909   49.2076 H   0  0
    5.5085  -23.1149   50.9418 H   0  0
   -1.5022  -24.7564   51.7694 H   0  0
   -3.1312  -25.2954   52.1488 H   0  0
   -3.4470  -26.3181   48.2908 H   0  0
   -1.8610  -26.8113   48.8753 H   0  0
   -4.7102  -25.0959   51.8758 H   0  0
   -1.5020  -27.0321   52.7382 H   0  0
   -0.8759  -27.0436   51.0755 H   0  0
   -3.4950  -28.5504   49.4163 H   0  0
   -4.5503  -27.3758   50.2075 H   0  0
   -6.1503  -22.5620   47.8535 H   0  0
   -3.0078  -24.4959   47.5007 H   0  0
   -6.8589  -23.8733   51.8923 H   0  0
   -7.5520  -22.5375   49.9056 H   0  0
   -2.8020  -22.0801   47.5661 H   0  0
   -4.3621  -21.8921   46.7486 H   0  0
   -2.9775  -22.6027   45.8620 H   0  0
   -5.7300  -24.0609   46.1977 H   0  0
   -5.0159  -25.6229   46.6478 H   0  0
   -4.2820  -24.6554   45.3390 H   0  0
   -1.4662  -28.6177   53.4926 H   0  0
   -4.7711  -29.6749   50.9138 H   0  0
   -2.2309  -30.2939   55.1684 H   0  0
   -5.5143  -31.3764   52.5765 H   0  0
   -5.2547  -33.2229   53.6464 H   0  0
   -6.0964  -33.2588   55.4314 H   0  0
   -4.0057  -33.4098   56.4128 H   0  0
   -3.1647  -33.3722   54.6295 H   0  0
   -3.3797  -30.5009   57.0669 H   0  0
  1  2  1  0
  2  3  2  0
  2  4  1  0
  3  5  1  0
  3  6  1  0
  4  7  2  0
  5  8  1  0
  6  9  2  0
  7  9  1  0
  7 10  1  0
  8 11  2  0
  8 12  1  0
 12 13  1  0
 12 14  1  0
 12 15  1  0
 13 16  2  0
 13 17  1  0
 14 18  1  0
 15 19  1  0
 16 20  1  0
 16 21  1  0
 17 22  2  0
 18 23  1  0
 19 23  1  0
 20 24  2  0
 21 25  1  0
 21 26  1  0
 22 24  1  0
 23 27  1  0
 27 28  2  0
 27 29  1  0
 28 30  1  0
 29 31  2  0
 30 32  2  0
 31 32  1  0
 32 33  1  0
 33 34  1  0
 33 35  1  0
 33 36  1  0
 34 37  2  0
 34 38  1  0
 35 36  1  0
  4 39  1  0
  5 40  1  0
  6 41  1  0
  9 42  1  0
 10 43  1  0
 10 44  1  0
 10 45  1  0
 14 46  1  0
 14 47  1  0
 15 48  1  0
 15 49  1  0
 17 50  1  0
 18 51  1  0
 18 52  1  0
 19 53  1  0
 19 54  1  0
 20 55  1  0
 21 56  1  0
 22 57  1  0
 24 58  1  0
 25 59  1  0
 25 60  1  0
 25 61  1  0
 26 62  1  0
 26 63  1  0
 26 64  1  0
 28 65  1  0
 29 66  1  0
 30 67  1  0
 31 68  1  0
 35 69  1  0
 35 70  1  0
 36 71  1  0
 36 72  1  0
 38 73  1  0
M  END
> <Name>
7

> <AbsoluteEnergy>
77.7543

> <Clean Energy>
124.815

> <Column 1>
7

> <ConfNumber>
76

> <Filter_Pass>
Failed

> <IC50_nM>
39.92

> <LogP>
6.55

> <MOL_NUMBER>
4

> <QSAR_Score_pIC50>
7.399

> <RelativeEnergy>
14.1946

> <SMILES>
Cc1ccc(NC(=O)C2(c3ccccc3C(C)C)CCN(c3ccc(C4(C(=O)O)CC4)cc3)CC2)c(F)c1

> <Toxicity_Alerts>
DILI, Basic N (hERG Warning)

> <Type>
Analog

> <POSE_NUMBER>
11

> <LibDockScore>
128.3607

> <HotSpots>
-3.53,-22.32,46.59,A,20,25
-4.53,-24.52,46.19,A,17,26
-4.13,-30.52,57.38,P,71,38

$$$$
7
  SciTegic05082609073D

 73 77  0  0  0  0            999 V2000
   -5.0873  -24.2330   48.7634 F   0  0  0  1  0  0
   -4.4389  -23.4155   47.9309 C   0  0  0  1  0  0
   -3.0774  -23.0740   48.1244 C   0  0  0  1  0  0
   -5.1543  -22.8780   46.8474 C   0  0  0  1  0  0
   -2.3158  -23.5843   49.1677 N   0  0  0  1  0  0
   -2.4711  -22.1606   47.2308 C   0  0  0  1  0  0
   -4.5379  -21.9810   45.9542 C   0  0  0  1  0  0
   -2.2136  -24.9231   49.5301 C   0  0  0  1  0  0
   -3.1947  -21.6212   46.1531 C   0  0  0  1  0  0
   -5.3150  -21.4192   44.8048 C   0  0  0  1  0  0
   -2.7856  -25.7836   48.8975 O   0  0  0  1  0  0
   -1.3698  -25.3313   50.7480 C   0  0  0  1  0  0
    0.0540  -24.7605   50.6767 C   0  0  0  1  0  0
   -2.1925  -24.8512   51.9796 C   0  0  0  1  0  0
   -1.2796  -26.8656   50.9973 C   0  0  0  1  0  0
    0.8220  -24.7768   49.4671 C   0  0  0  1  0  0
    0.6491  -24.1942   51.8344 C   0  0  0  1  0  0
   -3.6379  -25.3918   51.9983 C   0  0  0  1  0  0
   -2.6116  -27.6332   51.1411 C   0  0  0  1  0  0
    2.1279  -24.2338   49.4638 C   0  0  0  1  0  0
    0.3182  -25.3489   48.1594 C   0  0  0  1  0  0
    1.9461  -23.6605   51.8078 C   0  0  0  1  0  0
   -3.7817  -26.8515   51.6710 N   0  0  0  1  0  0
    2.6865  -23.6815   50.6225 C   0  0  0  1  0  0
    0.1956  -24.2656   47.0672 C   0  0  0  1  0  0
    1.1769  -26.5368   47.6804 C   0  0  0  1  0  0
   -5.0247  -27.4793   51.8191 C   0  0  0  1  0  0
   -6.2013  -26.7113   52.0017 C   0  0  0  1  0  0
   -5.1517  -28.8912   51.7843 C   0  0  0  1  0  0
   -7.4518  -27.3314   52.1620 C   0  0  0  1  0  0
   -6.4033  -29.5109   51.9416 C   0  0  0  1  0  0
   -7.5579  -28.7348   52.1367 C   0  0  0  1  0  0
   -8.9055  -29.4080   52.3245 C   0  0  0  1  0  0
   -9.5305  -29.1773   53.7065 C   0  0  0  1  0  0
   -9.1361  -30.7541   51.6458 C   0  0  0  1  0  0
   -9.8402  -29.5213   51.1254 C   0  0  0  1  0  0
   -9.3255  -28.1293   54.2823 O   0  0  0  1  0  0
  -10.2876  -30.1382   54.2515 O   0  0  0  1  0  0
   -6.1968  -23.1583   46.6969 H   0  0
   -1.7548  -22.8812   49.7472 H   0  0
   -1.4307  -21.8716   47.3795 H   0  0
   -2.7123  -20.9220   45.4701 H   0  0
   -6.1841  -20.9420   45.2576 H   0  0
   -5.6759  -22.2889   44.2557 H   0  0
   -4.7441  -20.7360   44.1760 H   0  0
   -2.2238  -23.7617   51.9822 H   0  0
   -1.6850  -25.1702   52.8900 H   0  0
   -0.7138  -27.3132   50.1802 H   0  0
   -0.6897  -27.0336   51.8984 H   0  0
    0.0846  -24.1736   52.7666 H   0  0
   -4.0634  -25.2148   52.9861 H   0  0
   -4.2349  -24.8178   51.2896 H   0  0
   -2.4484  -28.4903   51.7944 H   0  0
   -2.8834  -28.0384   50.1664 H   0  0
    2.7100  -24.2456   48.5423 H   0  0
   -0.6842  -25.7319   48.3505 H   0  0
    2.3766  -23.2294   52.7116 H   0  0
    3.6953  -23.2693   50.6004 H   0  0
    1.1770  -23.8165   46.9149 H   0  0
   -0.4932  -23.4975   47.4188 H   0  0
   -0.1683  -24.7002   46.1362 H   0  0
    1.1552  -27.3093   48.4491 H   0  0
    2.2034  -26.1917   47.5563 H   0  0
    0.7951  -26.9310   46.7386 H   0  0
   -6.1353  -25.6234   52.0181 H   0  0
   -4.2643  -29.5058   51.6331 H   0  0
   -8.3443  -26.7227   52.3067 H   0  0
   -6.4784  -30.5979   51.9121 H   0  0
   -9.8077  -31.3852   52.2278 H   0  0
   -8.2923  -31.0322   51.0143 H   0  0
   -9.3716  -29.1443   50.2164 H   0  0
  -10.8862  -29.4963   51.4310 H   0  0
   -9.6721  -30.9886   54.2732 H   0  0
  1  2  1  0
  2  3  2  0
  2  4  1  0
  3  5  1  0
  3  6  1  0
  4  7  2  0
  5  8  1  0
  6  9  2  0
  7  9  1  0
  7 10  1  0
  8 11  2  0
  8 12  1  0
 12 13  1  0
 12 14  1  0
 12 15  1  0
 13 16  2  0
 13 17  1  0
 14 18  1  0
 15 19  1  0
 16 20  1  0
 16 21  1  0
 17 22  2  0
 18 23  1  0
 19 23  1  0
 20 24  2  0
 21 25  1  0
 21 26  1  0
 22 24  1  0
 23 27  1  0
 27 28  2  0
 27 29  1  0
 28 30  1  0
 29 31  2  0
 30 32  2  0
 31 32  1  0
 32 33  1  0
 33 34  1  0
 33 35  1  0
 33 36  1  0
 34 37  2  0
 34 38  1  0
 35 36  1  0
  4 39  1  0
  5 40  1  0
  6 41  1  0
  9 42  1  0
 10 43  1  0
 10 44  1  0
 10 45  1  0
 14 46  1  0
 14 47  1  0
 15 48  1  0
 15 49  1  0
 17 50  1  0
 18 51  1  0
 18 52  1  0
 19 53  1  0
 19 54  1  0
 20 55  1  0
 21 56  1  0
 22 57  1  0
 24 58  1  0
 25 59  1  0
 25 60  1  0
 25 61  1  0
 26 62  1  0
 26 63  1  0
 26 64  1  0
 28 65  1  0
 29 66  1  0
 30 67  1  0
 31 68  1  0
 35 69  1  0
 35 70  1  0
 36 71  1  0
 36 72  1  0
 38 73  1  0
M  END
> <Name>
7

> <AbsoluteEnergy>
65.7458

> <Clean Energy>
124.815

> <Column 1>
7

> <ConfNumber>
14

> <Filter_Pass>
Failed

> <IC50_nM>
39.92

> <LogP>
6.55

> <MOL_NUMBER>
4

> <QSAR_Score_pIC50>
7.399

> <RelativeEnergy>
2.1861

> <SMILES>
Cc1ccc(NC(=O)C2(c3ccccc3C(C)C)CCN(c3ccc(C4(C(=O)O)CC4)cc3)CC2)c(F)c1

> <Toxicity_Alerts>
DILI, Basic N (hERG Warning)

> <Type>
Analog

> <POSE_NUMBER>
12

> <LibDockScore>
128.2573

> <HotSpots>
-5.93,-22.12,45.59,A,14,10
1.67,-24.32,50.98,A,50,20
-7.93,-28.32,52.38,A,59,30

$$$$
7
  SciTegic05082609073D

 73 77  0  0  0  0            999 V2000
    1.4826  -25.0475   47.1544 F   0  0  0  1  0  0
    1.8344  -24.5702   48.3495 C   0  0  0  1  0  0
    0.9120  -24.5063   49.4202 C   0  0  0  1  0  0
    3.1569  -24.1241   48.5314 C   0  0  0  1  0  0
   -0.3886  -24.9676   49.2912 N   0  0  0  1  0  0
    1.3400  -23.9909   50.6643 C   0  0  0  1  0  0
    3.5721  -23.6046   49.7728 C   0  0  0  1  0  0
   -1.4913  -24.3798   49.8970 C   0  0  0  1  0  0
    2.6556  -23.5412   50.8389 C   0  0  0  1  0  0
    4.9761  -23.1281   49.9498 C   0  0  0  1  0  0
   -1.3682  -23.2954   50.4267 O   0  0  0  1  0  0
   -2.8650  -25.0846   49.9647 C   0  0  0  1  0  0
   -3.9439  -24.4067   49.0957 C   0  0  0  1  0  0
   -2.7707  -26.5723   49.4693 C   0  0  0  1  0  0
   -3.1242  -25.1527   51.5112 C   0  0  0  1  0  0
   -5.2572  -23.9642   49.5094 C   0  0  0  1  0  0
   -3.6123  -24.2605   47.7229 C   0  0  0  1  0  0
   -1.8220  -27.4784   50.2839 C   0  0  0  1  0  0
   -2.0950  -26.0211   52.2606 C   0  0  0  1  0  0
   -6.1802  -23.5590   48.5174 C   0  0  0  1  0  0
   -5.7661  -23.9019   50.9370 C   0  0  0  1  0  0
   -4.5304  -23.7973   46.7751 C   0  0  0  1  0  0
   -2.2165  -27.3901   51.7095 N   0  0  0  1  0  0
   -5.8256  -23.4685   47.1703 C   0  0  0  1  0  0
   -6.6186  -25.1426   51.2863 C   0  0  0  1  0  0
   -6.5511  -22.6196   51.3017 C   0  0  0  1  0  0
   -2.7901  -28.4455   52.4030 C   0  0  0  1  0  0
   -3.3847  -29.5293   51.7238 C   0  0  0  1  0  0
   -2.8204  -28.4306   53.8151 C   0  0  0  1  0  0
   -4.0978  -30.5077   52.4346 C   0  0  0  1  0  0
   -3.5111  -29.4187   54.5263 C   0  0  0  1  0  0
   -4.2012  -30.4295   53.8369 C   0  0  0  1  0  0
   -5.0671  -31.3923   54.6166 C   0  0  0  1  0  0
   -6.5196  -30.9130   54.7075 C   0  0  0  1  0  0
   -4.8057  -32.8927   54.5827 C   0  0  0  1  0  0
   -4.4440  -32.0975   55.8137 C   0  0  0  1  0  0
   -7.0729  -30.9165   55.7818 O   0  0  0  1  0  0
   -7.1643  -30.4817   53.6174 O   0  0  0  1  0  0
    3.8653  -24.1812   47.7049 H   0  0
   -0.5539  -25.8336   48.6849 H   0  0
    0.6389  -23.9426   51.4975 H   0  0
    2.9699  -23.1413   51.8029 H   0  0
    5.1186  -22.3754   49.1744 H   0  0
    5.5995  -23.9825   49.6861 H   0  0
    5.1921  -22.7458   50.9474 H   0  0
   -2.4442  -26.5745   48.4293 H   0  0
   -3.7689  -27.0098   49.4874 H   0  0
   -3.0978  -24.1425   51.9197 H   0  0
   -4.1212  -25.5567   51.6869 H   0  0
   -2.6052  -24.5188   47.3957 H   0  0
   -1.9148  -28.5089   49.9409 H   0  0
   -0.7943  -27.1349   50.1661 H   0  0
   -2.3232  -26.0297   53.3264 H   0  0
   -1.0898  -25.6386   52.0836 H   0  0
   -7.1992  -23.3099   48.8137 H   0  0
   -4.8576  -23.8829   51.5389 H   0  0
   -4.2340  -23.6939   45.7313 H   0  0
   -6.5578  -23.1424   46.4316 H   0  0
   -6.0059  -26.0347   51.1564 H   0  0
   -7.4639  -25.1896   50.5998 H   0  0
   -6.9750  -25.0803   52.3145 H   0  0
   -7.3905  -22.5531   50.6095 H   0  0
   -5.8878  -21.7759   51.1112 H   0  0
   -6.8919  -22.6292   52.3370 H   0  0
   -3.2900  -29.6077   50.6408 H   0  0
   -2.3001  -27.6408   54.3570 H   0  0
   -4.5727  -31.3301   51.8996 H   0  0
   -3.5135  -29.4038   55.6162 H   0  0
   -3.9260  -33.1317   53.9851 H   0  0
   -5.7246  -33.4612   54.7262 H   0  0
   -5.1694  -32.2429   56.6142 H   0  0
   -3.3715  -31.9121   55.8725 H   0  0
   -7.0907  -31.2799   52.9392 H   0  0
  1  2  1  0
  2  3  2  0
  2  4  1  0
  3  5  1  0
  3  6  1  0
  4  7  2  0
  5  8  1  0
  6  9  2  0
  7  9  1  0
  7 10  1  0
  8 11  2  0
  8 12  1  0
 12 13  1  0
 12 14  1  0
 12 15  1  0
 13 16  2  0
 13 17  1  0
 14 18  1  0
 15 19  1  0
 16 20  1  0
 16 21  1  0
 17 22  2  0
 18 23  1  0
 19 23  1  0
 20 24  2  0
 21 25  1  0
 21 26  1  0
 22 24  1  0
 23 27  1  0
 27 28  2  0
 27 29  1  0
 28 30  1  0
 29 31  2  0
 30 32  2  0
 31 32  1  0
 32 33  1  0
 33 34  1  0
 33 35  1  0
 33 36  1  0
 34 37  2  0
 34 38  1  0
 35 36  1  0
  4 39  1  0
  5 40  1  0
  6 41  1  0
  9 42  1  0
 10 43  1  0
 10 44  1  0
 10 45  1  0
 14 46  1  0
 14 47  1  0
 15 48  1  0
 15 49  1  0
 17 50  1  0
 18 51  1  0
 18 52  1  0
 19 53  1  0
 19 54  1  0
 20 55  1  0
 21 56  1  0
 22 57  1  0
 24 58  1  0
 25 59  1  0
 25 60  1  0
 25 61  1  0
 26 62  1  0
 26 63  1  0
 26 64  1  0
 28 65  1  0
 29 66  1  0
 30 67  1  0
 31 68  1  0
 35 69  1  0
 35 70  1  0
 36 71  1  0
 36 72  1  0
 38 73  1  0
M  END
> <Name>
7

> <AbsoluteEnergy>
81.168

> <Clean Energy>
124.815

> <Column 1>
7

> <ConfNumber>
99

> <Filter_Pass>
Failed

> <IC50_nM>
39.92

> <LogP>
6.55

> <MOL_NUMBER>
4

> <QSAR_Score_pIC50>
7.399

> <RelativeEnergy>
17.6083

> <SMILES>
Cc1ccc(NC(=O)C2(c3ccccc3C(C)C)CCN(c3ccc(C4(C(=O)O)CC4)cc3)CC2)c(F)c1

> <Toxicity_Alerts>
DILI, Basic N (hERG Warning)

> <Type>
Analog

> <POSE_NUMBER>
13

> <LibDockScore>
124.8074

> <HotSpots>
4.67,-22.92,49.98,A,40,10
-4.93,-23.52,47.59,A,26,22
-4.33,-32.92,55.19,A,75,35

$$$$
7
  SciTegic05082609073D

 73 77  0  0  0  0            999 V2000
    1.0018  -24.2634   52.7724 F   0  0  0  1  0  0
    1.4617  -24.2341   51.5191 C   0  0  0  1  0  0
    0.6840  -24.7196   50.4358 C   0  0  0  1  0  0
    2.7460  -23.7069   51.2991 C   0  0  0  1  0  0
   -0.5844  -25.2411   50.6839 N   0  0  0  1  0  0
    1.2317  -24.6429   49.1327 C   0  0  0  1  0  0
    3.2812  -23.6513   50.0015 C   0  0  0  1  0  0
   -1.2857  -26.1817   49.9411 C   0  0  0  1  0  0
    2.5174  -24.1210   48.9193 C   0  0  0  1  0  0
    4.6506  -23.0937   49.7852 C   0  0  0  1  0  0
   -0.9187  -26.5146   48.8367 O   0  0  0  1  0  0
   -2.5458  -26.8242   50.5337 C   0  0  0  1  0  0
   -3.6925  -25.8038   50.6494 C   0  0  0  1  0  0
   -3.0171  -28.0636   49.7190 C   0  0  0  1  0  0
   -2.0779  -27.4366   51.8978 C   0  0  0  1  0  0
   -4.0166  -24.8800   49.6019 C   0  0  0  1  0  0
   -4.4788  -25.7620   51.8305 C   0  0  0  1  0  0
   -4.2832  -28.7155   50.3091 C   0  0  0  1  0  0
   -2.9159  -28.6154   52.4597 C   0  0  0  1  0  0
   -5.0892  -23.9775   49.7792 C   0  0  0  1  0  0
   -3.2747  -24.7984   48.2870 C   0  0  0  1  0  0
   -5.5399  -24.8613   51.9829 C   0  0  0  1  0  0
   -4.2512  -28.7920   51.8041 N   0  0  0  1  0  0
   -5.8461  -23.9665   50.9559 C   0  0  0  1  0  0
   -2.4208  -23.5205   48.1903 C   0  0  0  1  0  0
   -4.2230  -24.9424   47.0824 C   0  0  0  1  0  0
   -5.4059  -29.0083   52.5588 C   0  0  0  1  0  0
   -6.6936  -28.7643   52.0242 C   0  0  0  1  0  0
   -5.3161  -29.4732   53.8931 C   0  0  0  1  0  0
   -7.8450  -28.9439   52.8053 C   0  0  0  1  0  0
   -6.4682  -29.6498   54.6764 C   0  0  0  1  0  0
   -7.7360  -29.3738   54.1385 C   0  0  0  1  0  0
   -8.9730  -29.5257   54.9884 C   0  0  0  1  0  0
   -9.3246  -28.2433   55.7248 C   0  0  0  1  0  0
  -10.1138  -30.4040   54.4990 C   0  0  0  1  0  0
   -9.2625  -30.8603   55.6586 C   0  0  0  1  0  0
   -9.4379  -28.2658   56.9285 O   0  0  0  1  0  0
   -9.4934  -27.1244   55.0229 O   0  0  0  1  0  0
    3.3311  -23.3384   52.1417 H   0  0
   -1.0802  -24.8700   51.5565 H   0  0
    0.6467  -24.9941   48.2827 H   0  0
    2.9252  -24.0799   47.9093 H   0  0
    5.3033  -23.6902   50.4226 H   0  0
    4.6178  -22.0897   50.2084 H   0  0
    4.9696  -23.0965   48.7429 H   0  0
   -3.2212  -27.7578   48.6929 H   0  0
   -2.2156  -28.8020   49.6977 H   0  0
   -1.0463  -27.7712   51.7887 H   0  0
   -2.0605  -26.6426   52.6444 H   0  0
   -4.2497  -26.4516   52.6430 H   0  0
   -5.1558  -28.1385   50.0029 H   0  0
   -4.3866  -29.7228   49.9056 H   0  0
   -3.0695  -28.4608   53.5277 H   0  0
   -2.3462  -29.5375   52.3450 H   0  0
   -5.3322  -23.2748   48.9822 H   0  0
   -2.5894  -25.6455   48.2565 H   0  0
   -6.1260  -24.8587   52.9019 H   0  0
   -6.6707  -23.2629   51.0702 H   0  0
   -1.7059  -23.5194   49.0131 H   0  0
   -3.0781  -22.6570   48.2924 H   0  0
   -1.8958  -23.4829   47.2358 H   0  0
   -4.9664  -24.1468   47.1318 H   0  0
   -4.7303  -25.9044   47.1560 H   0  0
   -3.6665  -24.8805   46.1472 H   0  0
   -6.7920  -28.4321   50.9907 H   0  0
   -4.3380  -29.6974   54.3188 H   0  0
   -8.8279  -28.7492   52.3763 H   0  0
   -6.3784  -30.0018   55.7041 H   0  0
   -9.8514  -30.9245   53.5780 H   0  0
  -11.0803  -30.0267   54.8332 H   0  0
   -9.7752  -30.7267   56.6112 H   0  0
   -8.5453  -31.6232   55.3557 H   0  0
  -10.2405  -27.3508   54.3207 H   0  0
  1  2  1  0
  2  3  2  0
  2  4  1  0
  3  5  1  0
  3  6  1  0
  4  7  2  0
  5  8  1  0
  6  9  2  0
  7  9  1  0
  7 10  1  0
  8 11  2  0
  8 12  1  0
 12 13  1  0
 12 14  1  0
 12 15  1  0
 13 16  2  0
 13 17  1  0
 14 18  1  0
 15 19  1  0
 16 20  1  0
 16 21  1  0
 17 22  2  0
 18 23  1  0
 19 23  1  0
 20 24  2  0
 21 25  1  0
 21 26  1  0
 22 24  1  0
 23 27  1  0
 27 28  2  0
 27 29  1  0
 28 30  1  0
 29 31  2  0
 30 32  2  0
 31 32  1  0
 32 33  1  0
 33 34  1  0
 33 35  1  0
 33 36  1  0
 34 37  2  0
 34 38  1  0
 35 36  1  0
  4 39  1  0
  5 40  1  0
  6 41  1  0
  9 42  1  0
 10 43  1  0
 10 44  1  0
 10 45  1  0
 14 46  1  0
 14 47  1  0
 15 48  1  0
 15 49  1  0
 17 50  1  0
 18 51  1  0
 18 52  1  0
 19 53  1  0
 19 54  1  0
 20 55  1  0
 21 56  1  0
 22 57  1  0
 24 58  1  0
 25 59  1  0
 25 60  1  0
 25 61  1  0
 26 62  1  0
 26 63  1  0
 26 64  1  0
 28 65  1  0
 29 66  1  0
 30 67  1  0
 31 68  1  0
 35 69  1  0
 35 70  1  0
 36 71  1  0
 36 72  1  0
 38 73  1  0
M  END
> <Name>
7

> <AbsoluteEnergy>
63.9127

> <Clean Energy>
124.815

> <Column 1>
7

> <ConfNumber>
5

> <Filter_Pass>
Failed

> <IC50_nM>
39.92

> <LogP>
6.55

> <MOL_NUMBER>
4

> <QSAR_Score_pIC50>
7.399

> <RelativeEnergy>
0.352952

> <SMILES>
Cc1ccc(NC(=O)C2(c3ccccc3C(C)C)CCN(c3ccc(C4(C(=O)O)CC4)cc3)CC2)c(F)c1

> <Toxicity_Alerts>
DILI, Basic N (hERG Warning)

> <Type>
Analog

> <POSE_NUMBER>
14

> <LibDockScore>
123.4242

> <HotSpots>
2.67,-23.92,48.98,A,32,9
4.67,-22.92,49.98,A,40,10
-7.93,-28.32,52.38,A,59,30

$$$$
7
  SciTegic05082609073D

 73 77  0  0  0  0            999 V2000
    1.2356  -25.1728   47.2987 F   0  0  0  1  0  0
    1.4195  -24.8372   48.5788 C   0  0  0  1  0  0
    0.3603  -24.8837   49.5197 C   0  0  0  1  0  0
    2.7037  -24.4276   48.9803 C   0  0  0  1  0  0
   -0.9061  -25.2983   49.1330 N   0  0  0  1  0  0
    0.6251  -24.5215   50.8614 C   0  0  0  1  0  0
    2.9514  -24.0587   50.3160 C   0  0  0  1  0  0
   -2.0756  -25.0966   49.8519 C   0  0  0  1  0  0
    1.9055  -24.1053   51.2530 C   0  0  0  1  0  0
    4.3130  -23.6197   50.7478 C   0  0  0  1  0  0
   -2.0362  -24.7110   50.9996 O   0  0  0  1  0  0
   -3.4349  -25.3718   49.1929 C   0  0  0  1  0  0
   -3.6572  -24.3508   48.0546 C   0  0  0  1  0  0
   -4.6010  -25.2597   50.2253 C   0  0  0  1  0  0
   -3.4411  -26.8836   48.8552 C   0  0  0  1  0  0
   -3.7951  -24.5895   46.6376 C   0  0  0  1  0  0
   -3.7064  -23.0019   48.4959 C   0  0  0  1  0  0
   -4.5193  -26.1702   51.4761 C   0  0  0  1  0  0
   -3.0745  -27.7816   50.0504 C   0  0  0  1  0  0
   -3.9236  -23.4755   45.7692 C   0  0  0  1  0  0
   -3.8036  -25.9463   45.9597 C   0  0  0  1  0  0
   -3.8620  -21.9260   47.6164 C   0  0  0  1  0  0
   -3.8825  -27.5142   51.2802 N   0  0  0  1  0  0
   -3.9617  -22.1633   46.2465 C   0  0  0  1  0  0
   -4.8113  -26.0736   44.7949 C   0  0  0  1  0  0
   -2.3917  -26.3387   45.4848 C   0  0  0  1  0  0
   -3.9917  -28.5046   52.2582 C   0  0  0  1  0  0
   -3.1692  -29.6536   52.1867 C   0  0  0  1  0  0
   -4.9080  -28.3999   53.3316 C   0  0  0  1  0  0
   -3.2768  -30.6774   53.1430 C   0  0  0  1  0  0
   -5.0114  -29.4225   54.2918 C   0  0  0  1  0  0
   -4.2026  -30.5696   54.1978 C   0  0  0  1  0  0
   -4.3262  -31.6803   55.2231 C   0  0  0  1  0  0
   -4.1014  -31.2326   56.6691 C   0  0  0  1  0  0
   -5.3254  -32.7979   54.9502 C   0  0  0  1  0  0
   -3.8451  -33.0743   54.8476 C   0  0  0  1  0  0
   -3.7153  -30.1075   56.8920 O   0  0  0  1  0  0
   -4.3316  -32.0982   57.6607 O   0  0  0  1  0  0
    3.5135  -24.3956   48.2514 H   0  0
   -0.9878  -25.8178   48.2011 H   0  0
   -0.1757  -24.5665   51.5995 H   0  0
    2.0901  -23.8169   52.2878 H   0  0
    4.5557  -22.7857   50.0893 H   0  0
    4.9696  -24.4444   50.4707 H   0  0
    4.3872  -23.3585   51.8034 H   0  0
   -4.6657  -24.2242   50.5594 H   0  0
   -5.5385  -25.4694   49.7102 H   0  0
   -2.7343  -27.0686   48.0463 H   0  0
   -4.4324  -27.1613   48.4971 H   0  0
   -3.6194  -22.7970   49.5629 H   0  0
   -5.5277  -26.3217   51.8612 H   0  0
   -3.9696  -25.6404   52.2541 H   0  0
   -3.2096  -28.8241   49.7623 H   0  0
   -2.0198  -27.6415   50.2871 H   0  0
   -3.9949  -23.6488   44.6954 H   0  0
   -4.1409  -26.6424   46.7277 H   0  0
   -3.9051  -20.9067   48.0002 H   0  0
   -4.0687  -21.3301   45.5520 H   0  0
   -4.5638  -25.3013   44.0666 H   0  0
   -5.8010  -25.8588   45.1978 H   0  0
   -4.7799  -27.0641   44.3411 H   0  0
   -1.7263  -26.3669   46.3477 H   0  0
   -2.0345  -25.5838   44.7843 H   0  0
   -2.4146  -27.3149   45.0004 H   0  0
   -2.4427  -29.7458   51.3793 H   0  0
   -5.5410  -27.5165   53.4152 H   0  0
   -2.6404  -31.5591   53.0677 H   0  0
   -5.7218  -29.3256   55.1128 H   0  0
   -5.7843  -32.6924   53.9671 H   0  0
   -5.7455  -33.1922   55.8755 H   0  0
   -3.4760  -33.6179   55.7173 H   0  0
   -3.5145  -33.1166   53.8098 H   0  0
   -3.7263  -32.9283   57.4438 H   0  0
  1  2  1  0
  2  3  2  0
  2  4  1  0
  3  5  1  0
  3  6  1  0
  4  7  2  0
  5  8  1  0
  6  9  2  0
  7  9  1  0
  7 10  1  0
  8 11  2  0
  8 12  1  0
 12 13  1  0
 12 14  1  0
 12 15  1  0
 13 16  2  0
 13 17  1  0
 14 18  1  0
 15 19  1  0
 16 20  1  0
 16 21  1  0
 17 22  2  0
 18 23  1  0
 19 23  1  0
 20 24  2  0
 21 25  1  0
 21 26  1  0
 22 24  1  0
 23 27  1  0
 27 28  2  0
 27 29  1  0
 28 30  1  0
 29 31  2  0
 30 32  2  0
 31 32  1  0
 32 33  1  0
 33 34  1  0
 33 35  1  0
 33 36  1  0
 34 37  2  0
 34 38  1  0
 35 36  1  0
  4 39  1  0
  5 40  1  0
  6 41  1  0
  9 42  1  0
 10 43  1  0
 10 44  1  0
 10 45  1  0
 14 46  1  0
 14 47  1  0
 15 48  1  0
 15 49  1  0
 17 50  1  0
 18 51  1  0
 18 52  1  0
 19 53  1  0
 19 54  1  0
 20 55  1  0
 21 56  1  0
 22 57  1  0
 24 58  1  0
 25 59  1  0
 25 60  1  0
 25 61  1  0
 26 62  1  0
 26 63  1  0
 26 64  1  0
 28 65  1  0
 29 66  1  0
 30 67  1  0
 31 68  1  0
 35 69  1  0
 35 70  1  0
 36 71  1  0
 36 72  1  0
 38 73  1  0
M  END
> <Name>
7

> <AbsoluteEnergy>
73.2193

> <Clean Energy>
124.815

> <Column 1>
7

> <ConfNumber>
53

> <Filter_Pass>
Failed

> <IC50_nM>
39.92

> <LogP>
6.55

> <MOL_NUMBER>
4

> <QSAR_Score_pIC50>
7.399

> <RelativeEnergy>
9.6596

> <SMILES>
Cc1ccc(NC(=O)C2(c3ccccc3C(C)C)CCN(c3ccc(C4(C(=O)O)CC4)cc3)CC2)c(F)c1

> <Toxicity_Alerts>
DILI, Basic N (hERG Warning)

> <Type>
Analog

> <POSE_NUMBER>
15

> <LibDockScore>
121.9717

> <HotSpots>
-3.53,-22.32,46.59,A,20,24
-4.33,-26.12,45.19,A,10,25
-4.33,-32.92,55.19,A,75,36

$$$$
7
  SciTegic05082609073D

 73 77  0  0  0  0            999 V2000
   -7.9678  -27.6377   54.5640 F   0  0  0  1  0  0
   -8.5133  -28.4231   53.6332 C   0  0  0  1  0  0
   -8.2016  -28.2810   52.2568 C   0  0  0  1  0  0
   -9.4294  -29.4071   54.0499 C   0  0  0  1  0  0
   -7.2758  -27.3687   51.7729 N   0  0  0  1  0  0
   -8.8628  -29.1061   51.3180 C   0  0  0  1  0  0
  -10.0661  -30.2403   53.1090 C   0  0  0  1  0  0
   -6.0083  -27.1493   52.2899 C   0  0  0  1  0  0
   -9.7843  -30.0783   51.7395 C   0  0  0  1  0  0
  -11.0344  -31.2899   53.5491 C   0  0  0  1  0  0
   -5.5620  -27.8801   53.1474 O   0  0  0  1  0  0
   -5.1478  -25.9939   51.7511 C   0  0  0  1  0  0
   -3.6864  -26.1941   52.2282 C   0  0  0  1  0  0
   -5.2677  -25.9208   50.1615 C   0  0  0  1  0  0
   -5.7354  -24.6063   52.2485 C   0  0  0  1  0  0
   -2.8189  -27.2257   51.7320 C   0  0  0  1  0  0
   -3.1554  -25.3310   53.2259 C   0  0  0  1  0  0
   -5.2133  -24.4928   49.5722 C   0  0  0  1  0  0
   -4.9628  -23.3500   51.7087 C   0  0  0  1  0  0
   -1.4491  -27.2105   52.0897 C   0  0  0  1  0  0
   -3.2779  -28.3674   50.8527 C   0  0  0  1  0  0
   -1.8092  -25.3688   53.6097 C   0  0  0  1  0  0
   -4.2912  -23.7366   50.4375 N   0  0  0  1  0  0
   -0.9483  -26.2904   53.0169 C   0  0  0  1  0  0
   -2.3973  -28.5409   49.5960 C   0  0  0  1  0  0
   -3.3481  -29.6827   51.6472 C   0  0  0  1  0  0
   -2.9209  -23.6430   50.1941 C   0  0  0  1  0  0
   -2.4424  -23.8377   48.8787 C   0  0  0  1  0  0
   -1.9748  -23.4230   51.2206 C   0  0  0  1  0  0
   -1.0774  -23.9698   48.6211 C   0  0  0  1  0  0
   -0.5980  -23.5661   50.9614 C   0  0  0  1  0  0
   -0.1403  -23.9154   49.6702 C   0  0  0  1  0  0
    1.3196  -24.2491   49.3839 C   0  0  0  1  0  0
    1.5000  -25.0476   48.0865 C   0  0  0  1  0  0
    2.4037  -23.2760   49.8339 C   0  0  0  1  0  0
    2.2958  -24.6367   50.4957 C   0  0  0  1  0  0
    1.4650  -24.4726   47.0221 O   0  0  0  1  0  0
    1.6743  -26.3684   48.1493 O   0  0  0  1  0  0
   -9.6484  -29.5257   55.1111 H   0  0
   -7.5653  -26.7825   50.9259 H   0  0
   -8.6548  -28.9861   50.2548 H   0  0
  -10.2829  -30.7094   51.0038 H   0  0
  -11.7865  -30.7483   54.1228 H   0  0
  -10.4752  -31.9018   54.2569 H   0  0
  -11.4649  -31.8738   52.7356 H   0  0
   -6.2053  -26.3867   49.8581 H   0  0
   -4.4625  -26.5095   49.7220 H   0  0
   -5.7181  -24.5864   53.3382 H   0  0
   -6.7784  -24.5354   51.9400 H   0  0
   -3.8198  -24.6146   53.7090 H   0  0
   -4.8255  -24.5260   48.5541 H   0  0
   -6.2047  -24.0407   49.6001 H   0  0
   -4.2155  -23.0366   52.4377 H   0  0
   -5.6669  -22.5396   51.5200 H   0  0
   -0.7704  -27.9309   51.6330 H   0  0
   -4.2798  -28.1103   50.5089 H   0  0
   -1.4365  -24.6807   54.3685 H   0  0
    0.1108  -26.2944   53.2746 H   0  0
   -1.3728  -28.7200   49.9221 H   0  0
   -2.4265  -27.6096   49.0304 H   0  0
   -2.7527  -29.3698   48.9838 H   0  0
   -4.0463  -29.5570   52.4747 H   0  0
   -2.3587  -29.9057   52.0465 H   0  0
   -3.6800  -30.4954   51.0010 H   0  0
   -3.1511  -23.8855   48.0519 H   0  0
   -2.3124  -23.1411   52.2179 H   0  0
   -0.7333  -24.1166   47.5973 H   0  0
    0.1218  -23.4060   51.7641 H   0  0
    1.9963  -22.4883   50.4676 H   0  0
    3.2287  -23.2401   49.1224 H   0  0
    3.0623  -25.3215   50.1329 H   0  0
    1.8280  -24.5696   51.4779 H   0  0
    0.8405  -26.7257   48.6781 H   0  0
  1  2  1  0
  2  3  2  0
  2  4  1  0
  3  5  1  0
  3  6  1  0
  4  7  2  0
  5  8  1  0
  6  9  2  0
  7  9  1  0
  7 10  1  0
  8 11  2  0
  8 12  1  0
 12 13  1  0
 12 14  1  0
 12 15  1  0
 13 16  2  0
 13 17  1  0
 14 18  1  0
 15 19  1  0
 16 20  1  0
 16 21  1  0
 17 22  2  0
 18 23  1  0
 19 23  1  0
 20 24  2  0
 21 25  1  0
 21 26  1  0
 22 24  1  0
 23 27  1  0
 27 28  2  0
 27 29  1  0
 28 30  1  0
 29 31  2  0
 30 32  2  0
 31 32  1  0
 32 33  1  0
 33 34  1  0
 33 35  1  0
 33 36  1  0
 34 37  2  0
 34 38  1  0
 35 36  1  0
  4 39  1  0
  5 40  1  0
  6 41  1  0
  9 42  1  0
 10 43  1  0
 10 44  1  0
 10 45  1  0
 14 46  1  0
 14 47  1  0
 15 48  1  0
 15 49  1  0
 17 50  1  0
 18 51  1  0
 18 52  1  0
 19 53  1  0
 19 54  1  0
 20 55  1  0
 21 56  1  0
 22 57  1  0
 24 58  1  0
 25 59  1  0
 25 60  1  0
 25 61  1  0
 26 62  1  0
 26 63  1  0
 26 64  1  0
 28 65  1  0
 29 66  1  0
 30 67  1  0
 31 68  1  0
 35 69  1  0
 35 70  1  0
 36 71  1  0
 36 72  1  0
 38 73  1  0
M  END
> <Name>
7

> <AbsoluteEnergy>
81.9698

> <Clean Energy>
124.815

> <Column 1>
7

> <ConfNumber>
108

> <Filter_Pass>
Failed

> <IC50_nM>
39.92

> <LogP>
6.55

> <MOL_NUMBER>
4

> <QSAR_Score_pIC50>
7.399

> <RelativeEnergy>
18.4101

> <SMILES>
Cc1ccc(NC(=O)C2(c3ccccc3C(C)C)CCN(c3ccc(C4(C(=O)O)CC4)cc3)CC2)c(F)c1

> <Toxicity_Alerts>
DILI, Basic N (hERG Warning)

> <Type>
Analog

> <POSE_NUMBER>
16

> <LibDockScore>
121.7509

> <HotSpots>
-8.73,-28.12,54.38,A,70,4
-5.53,-22.92,48.98,A,33,19
-2.53,-22.32,48.19,A,29,29

$$$$
7
  SciTegic05082609073D

 73 77  0  0  0  0            999 V2000
    0.3516  -24.3072   52.7854 F   0  0  0  1  0  0
    1.0148  -24.3033   51.6231 C   0  0  0  1  0  0
    0.4971  -24.9654   50.4811 C   0  0  0  1  0  0
    2.2453  -23.6289   51.5584 C   0  0  0  1  0  0
   -0.7173  -25.6308   50.5879 N   0  0  0  1  0  0
    1.2372  -24.9188   49.2774 C   0  0  0  1  0  0
    2.9806  -23.6018   50.3604 C   0  0  0  1  0  0
   -1.2551  -26.6084   49.7606 C   0  0  0  1  0  0
    2.4704  -24.2502   49.2222 C   0  0  0  1  0  0
    4.2939  -22.8936   50.2852 C   0  0  0  1  0  0
   -0.7002  -26.9665   48.7460 O   0  0  0  1  0  0
   -2.5787  -27.2447   50.2005 C   0  0  0  1  0  0
   -3.6966  -26.1879   50.1821 C   0  0  0  1  0  0
   -2.2056  -27.8427   51.6202 C   0  0  0  1  0  0
   -3.0598  -28.4684   49.3553 C   0  0  0  1  0  0
   -3.8506  -25.2513   49.1062 C   0  0  0  1  0  0
   -4.6208  -26.1190   51.2551 C   0  0  0  1  0  0
   -2.8503  -29.1942   51.9855 C   0  0  0  1  0  0
   -4.3320  -29.1263   49.9566 C   0  0  0  1  0  0
   -4.8657  -24.2709   49.1765 C   0  0  0  1  0  0
   -2.9868  -25.2340   47.8638 C   0  0  0  1  0  0
   -5.6315  -25.1481   51.2949 C   0  0  0  1  0  0
   -4.2227  -29.2790   51.4387 N   0  0  0  1  0  0
   -5.7493  -24.2178   50.2596 C   0  0  0  1  0  0
   -2.0656  -24.0014   47.8131 C   0  0  0  1  0  0
   -3.8279  -25.3654   46.5793 C   0  0  0  1  0  0
   -5.3133  -29.4355   52.2802 C   0  0  0  1  0  0
   -5.1161  -29.6638   53.6610 C   0  0  0  1  0  0
   -6.6325  -29.3412   51.7881 C   0  0  0  1  0  0
   -6.2082  -29.7262   54.5367 C   0  0  0  1  0  0
   -7.7246  -29.3882   52.6681 C   0  0  0  1  0  0
   -7.5148  -29.5546   54.0502 C   0  0  0  1  0  0
   -8.6731  -29.5273   55.0225 C   0  0  0  1  0  0
   -8.9134  -28.1327   55.6038 C   0  0  0  1  0  0
   -9.8826  -30.4221   54.8029 C   0  0  0  1  0  0
   -8.8921  -30.7562   55.8914 C   0  0  0  1  0  0
   -8.8224  -27.9801   56.8024 O   0  0  0  1  0  0
   -9.2202  -27.1207   54.7869 O   0  0  0  1  0  0
    2.6327  -23.1232   52.4429 H   0  0
   -1.3233  -25.3513   51.4243 H   0  0
    0.8468  -25.4064   48.3841 H   0  0
    3.0361  -24.2337   48.2906 H   0  0
    4.8972  -23.3470   51.0717 H   0  0
    4.0756  -21.8734   50.6008 H   0  0
    4.7735  -22.9387   49.3074 H   0  0
   -1.1226  -27.9532   51.6750 H   0  0
   -2.4774  -27.1153   52.3851 H   0  0
   -3.2757  -28.1380   48.3393 H   0  0
   -2.2619  -29.2098   49.3121 H   0  0
   -4.5436  -26.8391   52.0697 H   0  0
   -2.8883  -29.2957   53.0701 H   0  0
   -2.2482  -30.0043   51.5741 H   0  0
   -5.1992  -28.5082   49.7243 H   0  0
   -4.4759  -30.1084   49.5063 H   0  0
   -4.9620  -23.5423   48.3716 H   0  0
   -2.3414  -26.1105   47.9204 H   0  0
   -6.3260  -25.1192   52.1345 H   0  0
   -6.5261  -23.4540   50.2955 H   0  0
   -1.4307  -24.0116   48.6990 H   0  0
   -2.6884  -23.1072   47.8372 H   0  0
   -1.4553  -24.0133   46.9100 H   0  0
   -4.5353  -24.5369   46.5433 H   0  0
   -4.3833  -26.3022   46.6244 H   0  0
   -3.1859  -25.3506   45.6986 H   0  0
   -4.1053  -29.7925   54.0482 H   0  0
   -6.8043  -29.2311   50.7174 H   0  0
   -6.0434  -29.9084   55.5986 H   0  0
   -8.7390  -29.2955   52.2801 H   0  0
   -9.7532  -31.0630   53.9307 H   0  0
  -10.7899  -29.9741   55.2081 H   0  0
   -9.2715  -30.4868   56.8771 H   0  0
   -8.2339  -31.5744   55.5993 H   0  0
  -10.0728  -27.4448   54.2668 H   0  0
  1  2  1  0
  2  3  2  0
  2  4  1  0
  3  5  1  0
  3  6  1  0
  4  7  2  0
  5  8  1  0
  6  9  2  0
  7  9  1  0
  7 10  1  0
  8 11  2  0
  8 12  1  0
 12 13  1  0
 12 14  1  0
 12 15  1  0
 13 16  2  0
 13 17  1  0
 14 18  1  0
 15 19  1  0
 16 20  1  0
 16 21  1  0
 17 22  2  0
 18 23  1  0
 19 23  1  0
 20 24  2  0
 21 25  1  0
 21 26  1  0
 22 24  1  0
 23 27  1  0
 27 28  2  0
 27 29  1  0
 28 30  1  0
 29 31  2  0
 30 32  2  0
 31 32  1  0
 32 33  1  0
 33 34  1  0
 33 35  1  0
 33 36  1  0
 34 37  2  0
 34 38  1  0
 35 36  1  0
  4 39  1  0
  5 40  1  0
  6 41  1  0
  9 42  1  0
 10 43  1  0
 10 44  1  0
 10 45  1  0
 14 46  1  0
 14 47  1  0
 15 48  1  0
 15 49  1  0
 17 50  1  0
 18 51  1  0
 18 52  1  0
 19 53  1  0
 19 54  1  0
 20 55  1  0
 21 56  1  0
 22 57  1  0
 24 58  1  0
 25 59  1  0
 25 60  1  0
 25 61  1  0
 26 62  1  0
 26 63  1  0
 26 64  1  0
 28 65  1  0
 29 66  1  0
 30 67  1  0
 31 68  1  0
 35 69  1  0
 35 70  1  0
 36 71  1  0
 36 72  1  0
 38 73  1  0
M  END
> <Name>
7

> <AbsoluteEnergy>
69.8419

> <Clean Energy>
124.815

> <Column 1>
7

> <ConfNumber>
35

> <Filter_Pass>
Failed

> <IC50_nM>
39.92

> <LogP>
6.55

> <MOL_NUMBER>
4

> <QSAR_Score_pIC50>
7.399

> <RelativeEnergy>
6.28217

> <SMILES>
Cc1ccc(NC(=O)C2(c3ccccc3C(C)C)CCN(c3ccc(C4(C(=O)O)CC4)cc3)CC2)c(F)c1

> <Toxicity_Alerts>
DILI, Basic N (hERG Warning)

> <Type>
Analog

> <POSE_NUMBER>
17

> <LibDockScore>
119.9584

> <HotSpots>
2.67,-23.92,48.98,A,32,9
4.67,-22.92,49.98,A,40,10
-5.33,-24.12,49.78,A,36,24

$$$$
7
  SciTegic05082609073D

 73 77  0  0  0  0            999 V2000
   -1.8573  -24.7647   49.4968 F   0  0  0  1  0  0
   -3.0035  -24.3112   48.9916 C   0  0  0  1  0  0
   -4.2849  -24.7145   49.4674 C   0  0  0  1  0  0
   -2.9005  -23.3759   47.9423 C   0  0  0  1  0  0
   -4.5267  -25.6509   50.4762 N   0  0  0  1  0  0
   -5.4298  -24.1193   48.8835 C   0  0  0  1  0  0
   -4.0508  -22.8119   47.3629 C   0  0  0  1  0  0
   -3.8825  -26.8508   50.7621 C   0  0  0  1  0  0
   -5.3174  -23.1828   47.8449 C   0  0  0  1  0  0
   -3.9189  -21.8258   46.2467 C   0  0  0  1  0  0
   -2.9964  -27.2337   50.0282 O   0  0  0  1  0  0
   -4.3598  -27.6856   51.9964 C   0  0  0  1  0  0
   -3.2622  -27.9365   53.0680 C   0  0  0  1  0  0
   -5.5117  -26.9252   52.7423 C   0  0  0  1  0  0
   -4.9294  -28.9872   51.3117 C   0  0  0  1  0  0
   -3.1551  -29.0746   53.9567 C   0  0  0  1  0  0
   -2.2764  -26.9208   53.2179 C   0  0  0  1  0  0
   -6.4433  -27.8349   53.5635 C   0  0  0  1  0  0
   -6.4693  -29.1595   51.3792 C   0  0  0  1  0  0
   -2.0325  -29.1851   54.8082 C   0  0  0  1  0  0
   -4.1531  -30.2064   54.1104 C   0  0  0  1  0  0
   -1.1803  -27.0501   54.0801 C   0  0  0  1  0  0
   -7.0463  -28.9251   52.7398 N   0  0  0  1  0  0
   -1.0489  -28.1944   54.8658 C   0  0  0  1  0  0
   -3.7112  -31.4851   53.3723 C   0  0  0  1  0  0
   -4.4784  -30.5324   55.5867 C   0  0  0  1  0  0
   -8.1026  -29.6963   53.2253 C   0  0  0  1  0  0
   -8.8613  -30.5046   52.3492 C   0  0  0  1  0  0
   -8.4418  -29.6891   54.5982 C   0  0  0  1  0  0
   -9.9299  -31.2845   52.8329 C   0  0  0  1  0  0
   -9.5118  -30.4623   55.0800 C   0  0  0  1  0  0
  -10.2709  -31.2588   54.2010 C   0  0  0  1  0  0
  -11.4473  -32.0597   54.7334 C   0  0  0  1  0  0
  -11.1555  -33.5252   55.0649 C   0  0  0  1  0  0
  -12.8475  -31.7042   54.2493 C   0  0  0  1  0  0
  -12.4296  -31.3473   55.6528 C   0  0  0  1  0  0
  -11.3255  -34.3676   54.2100 O   0  0  0  1  0  0
  -10.7462  -33.8702   56.2888 O   0  0  0  1  0  0
   -1.9160  -23.0859   47.5751 H   0  0
   -5.3354  -25.4065   51.1329 H   0  0
   -6.4192  -24.3946   49.2488 H   0  0
   -6.2148  -22.7419   47.4109 H   0  0
   -3.3418  -22.3430   45.4801 H   0  0
   -3.2858  -21.0326   46.6444 H   0  0
   -4.8711  -21.4513   45.8711 H   0  0
   -5.0697  -26.1846   53.4087 H   0  0
   -6.1093  -26.3841   52.0087 H   0  0
   -4.6264  -28.9904   50.2647 H   0  0
   -4.4634  -29.8571   51.7745 H   0  0
   -2.3788  -26.0040   52.6374 H   0  0
   -7.2430  -27.2320   53.9938 H   0  0
   -5.8764  -28.2802   54.3811 H   0  0
   -6.7264  -30.1692   51.0591 H   0  0
   -6.9328  -28.4657   50.6778 H   0  0
   -1.9311  -30.0688   55.4382 H   0  0
   -5.0676  -29.8399   53.6442 H   0  0
   -0.4326  -26.2590   54.1367 H   0  0
   -0.1854  -28.3152   55.5200 H   0  0
   -2.7453  -31.7928   53.7730 H   0  0
   -3.5918  -31.2443   52.3160 H   0  0
   -4.4462  -32.2798   53.5001 H   0  0
   -4.8756  -29.6291   56.0496 H   0  0
   -3.5457  -30.7970   56.0848 H   0  0
   -5.1971  -31.3487   55.6592 H   0  0
   -8.6169  -30.5249   51.2871 H   0  0
   -7.8660  -29.0760   55.2915 H   0  0
  -10.4969  -31.9120   52.1452 H   0  0
   -9.7561  -30.4454   56.1421 H   0  0
  -13.4983  -32.5784   54.2327 H   0  0
  -12.8333  -30.8354   53.5912 H   0  0
  -12.1935  -30.2872   55.7456 H   0  0
  -12.8569  -32.0307   56.3866 H   0  0
  -11.4903  -33.4980   56.9293 H   0  0
  1  2  1  0
  2  3  2  0
  2  4  1  0
  3  5  1  0
  3  6  1  0
  4  7  2  0
  5  8  1  0
  6  9  2  0
  7  9  1  0
  7 10  1  0
  8 11  2  0
  8 12  1  0
 12 13  1  0
 12 14  1  0
 12 15  1  0
 13 16  2  0
 13 17  1  0
 14 18  1  0
 15 19  1  0
 16 20  1  0
 16 21  1  0
 17 22  2  0
 18 23  1  0
 19 23  1  0
 20 24  2  0
 21 25  1  0
 21 26  1  0
 22 24  1  0
 23 27  1  0
 27 28  2  0
 27 29  1  0
 28 30  1  0
 29 31  2  0
 30 32  2  0
 31 32  1  0
 32 33  1  0
 33 34  1  0
 33 35  1  0
 33 36  1  0
 34 37  2  0
 34 38  1  0
 35 36  1  0
  4 39  1  0
  5 40  1  0
  6 41  1  0
  9 42  1  0
 10 43  1  0
 10 44  1  0
 10 45  1  0
 14 46  1  0
 14 47  1  0
 15 48  1  0
 15 49  1  0
 17 50  1  0
 18 51  1  0
 18 52  1  0
 19 53  1  0
 19 54  1  0
 20 55  1  0
 21 56  1  0
 22 57  1  0
 24 58  1  0
 25 59  1  0
 25 60  1  0
 25 61  1  0
 26 62  1  0
 26 63  1  0
 26 64  1  0
 28 65  1  0
 29 66  1  0
 30 67  1  0
 31 68  1  0
 35 69  1  0
 35 70  1  0
 36 71  1  0
 36 72  1  0
 38 73  1  0
M  END
> <Name>
7

> <AbsoluteEnergy>
79.2933

> <Clean Energy>
124.815

> <Column 1>
7

> <ConfNumber>
91

> <Filter_Pass>
Failed

> <IC50_nM>
39.92

> <LogP>
6.55

> <MOL_NUMBER>
4

> <QSAR_Score_pIC50>
7.399

> <RelativeEnergy>
15.7336

> <SMILES>
Cc1ccc(NC(=O)C2(c3ccccc3C(C)C)CCN(c3ccc(C4(C(=O)O)CC4)cc3)CC2)c(F)c1

> <Toxicity_Alerts>
DILI, Basic N (hERG Warning)

> <Type>
Analog

> <POSE_NUMBER>
18

> <LibDockScore>
119.8795

> <HotSpots>
-3.53,-22.32,46.59,A,20,10
-1.73,-29.72,55.59,A,76,20
-12.13,-33.92,53.59,P,45,37

$$$$
7
  SciTegic05082609073D

 73 77  0  0  0  0            999 V2000
   -5.8935  -30.7276   54.9079 F   0  0  0  1  0  0
   -6.9817  -30.1555   54.3856 C   0  0  0  1  0  0
   -6.8951  -28.9903   53.5840 C   0  0  0  1  0  0
   -8.2380  -30.7364   54.6521 C   0  0  0  1  0  0
   -5.6726  -28.4078   53.2802 N   0  0  0  1  0  0
   -8.0823  -28.4349   53.0571 C   0  0  0  1  0  0
   -9.4161  -30.1687   54.1236 C   0  0  0  1  0  0
   -5.5000  -27.0891   52.8690 C   0  0  0  1  0  0
   -9.3317  -29.0146   53.3262 C   0  0  0  1  0  0
  -10.7520  -30.7820   54.3975 C   0  0  0  1  0  0
   -6.4632  -26.3613   52.7808 O   0  0  0  1  0  0
   -4.1065  -26.5390   52.4884 C   0  0  0  1  0  0
   -2.9237  -27.0508   53.3256 C   0  0  0  1  0  0
   -3.9811  -26.9785   50.9701 C   0  0  0  1  0  0
   -4.1872  -24.9652   52.6761 C   0  0  0  1  0  0
   -1.6167  -26.4450   53.2819 C   0  0  0  1  0  0
   -3.1077  -28.1549   54.1957 C   0  0  0  1  0  0
   -4.8262  -26.1026   50.0250 C   0  0  0  1  0  0
   -4.9317  -24.2077   51.5500 C   0  0  0  1  0  0
   -0.5651  -27.0067   54.0360 C   0  0  0  1  0  0
   -1.2627  -25.2090   52.4779 C   0  0  0  1  0  0
   -2.0504  -28.6856   54.9440 C   0  0  0  1  0  0
   -4.3755  -24.7131   50.2757 N   0  0  0  1  0  0
   -0.7750  -28.1184   54.8583 C   0  0  0  1  0  0
   -0.6119  -25.5501   51.1215 C   0  0  0  1  0  0
   -0.3820  -24.2222   53.2733 C   0  0  0  1  0  0
   -3.3695  -24.0788   49.5437 C   0  0  0  1  0  0
   -2.5888  -23.0357   50.1017 C   0  0  0  1  0  0
   -3.0521  -24.5183   48.2347 C   0  0  0  1  0  0
   -1.4034  -22.6223   49.4732 C   0  0  0  1  0  0
   -1.8688  -24.1095   47.6085 C   0  0  0  1  0  0
   -0.9981  -23.2307   48.2731 C   0  0  0  1  0  0
    0.3840  -22.9846   47.7293 C   0  0  0  1  0  0
    1.3914  -23.7667   48.5731 C   0  0  0  1  0  0
    0.6188  -22.8007   46.2371 C   0  0  0  1  0  0
    0.7636  -21.6196   47.1755 C   0  0  0  1  0  0
    1.4435  -24.9687   48.4734 O   0  0  0  1  0  0
    2.1730  -23.1201   49.4368 O   0  0  0  1  0  0
   -8.2996  -31.6313   55.2714 H   0  0
   -4.7978  -29.0176   53.3686 H   0  0
   -8.0272  -27.5433   52.4325 H   0  0
  -10.2380  -28.5690   52.9161 H   0  0
  -10.8212  -30.8169   55.4847 H   0  0
  -10.6581  -31.8117   54.0526 H   0  0
  -11.5903  -30.2582   53.9382 H   0  0
   -4.3009  -28.0159   50.8716 H   0  0
   -2.9356  -26.9188   50.6678 H   0  0
   -4.6810  -24.7512   53.6240 H   0  0
   -3.1745  -24.5688   52.7503 H   0  0
   -4.0978  -28.6020   54.2842 H   0  0
   -4.6308  -26.3773   48.9884 H   0  0
   -5.8837  -26.2019   50.2697 H   0  0
   -4.7463  -23.1371   51.6371 H   0  0
   -5.9988  -24.4238   51.6009 H   0  0
    0.4300  -26.5659   53.9767 H   0  0
   -2.2109  -24.7132   52.2702 H   0  0
   -2.2216  -29.5429   55.5950 H   0  0
    0.0516  -28.5407   55.4297 H   0  0
   -1.3105  -26.1664   50.5556 H   0  0
    0.2899  -26.1311   51.3146 H   0  0
   -0.3694  -24.6431   50.5678 H   0  0
    0.5307  -24.7406   53.5671 H   0  0
   -0.9243  -23.9300   54.1725 H   0  0
   -0.1436  -23.3450   52.6719 H   0  0
   -2.9105  -22.5518   51.0239 H   0  0
   -3.7377  -25.1828   47.7089 H   0  0
   -0.7985  -21.8307   49.9154 H   0  0
   -1.6244  -24.4715   46.6099 H   0  0
   -0.3206  -22.7620   45.6857 H   0  0
    1.5893  -23.1934   45.9337 H   0  0
    1.8108  -21.3863   47.3680 H   0  0
   -0.0994  -20.9559   47.1212 H   0  0
    1.5081  -22.6002   50.0614 H   0  0
  1  2  1  0
  2  3  2  0
  2  4  1  0
  3  5  1  0
  3  6  1  0
  4  7  2  0
  5  8  1  0
  6  9  2  0
  7  9  1  0
  7 10  1  0
  8 11  2  0
  8 12  1  0
 12 13  1  0
 12 14  1  0
 12 15  1  0
 13 16  2  0
 13 17  1  0
 14 18  1  0
 15 19  1  0
 16 20  1  0
 16 21  1  0
 17 22  2  0
 18 23  1  0
 19 23  1  0
 20 24  2  0
 21 25  1  0
 21 26  1  0
 22 24  1  0
 23 27  1  0
 27 28  2  0
 27 29  1  0
 28 30  1  0
 29 31  2  0
 30 32  2  0
 31 32  1  0
 32 33  1  0
 33 34  1  0
 33 35  1  0
 33 36  1  0
 34 37  2  0
 34 38  1  0
 35 36  1  0
  4 39  1  0
  5 40  1  0
  6 41  1  0
  9 42  1  0
 10 43  1  0
 10 44  1  0
 10 45  1  0
 14 46  1  0
 14 47  1  0
 15 48  1  0
 15 49  1  0
 17 50  1  0
 18 51  1  0
 18 52  1  0
 19 53  1  0
 19 54  1  0
 20 55  1  0
 21 56  1  0
 22 57  1  0
 24 58  1  0
 25 59  1  0
 25 60  1  0
 25 61  1  0
 26 62  1  0
 26 63  1  0
 26 64  1  0
 28 65  1  0
 29 66  1  0
 30 67  1  0
 31 68  1  0
 35 69  1  0
 35 70  1  0
 36 71  1  0
 36 72  1  0
 38 73  1  0
M  END
> <Name>
7

> <AbsoluteEnergy>
74.6551

> <Clean Energy>
124.815

> <Column 1>
7

> <ConfNumber>
63

> <Filter_Pass>
Failed

> <IC50_nM>
39.92

> <LogP>
6.55

> <MOL_NUMBER>
4

> <QSAR_Score_pIC50>
7.399

> <RelativeEnergy>
11.0954

> <SMILES>
Cc1ccc(NC(=O)C2(c3ccccc3C(C)C)CCN(c3ccc(C4(C(=O)O)CC4)cc3)CC2)c(F)c1

> <Toxicity_Alerts>
DILI, Basic N (hERG Warning)

> <Type>
Analog

> <POSE_NUMBER>
19

> <LibDockScore>
112.6618

> <HotSpots>
-9.53,-30.12,52.78,A,62,9
-0.93,-28.12,54.98,A,74,24
0.27,-22.52,46.78,A,23,36

$$$$
7
  SciTegic05082609073D

 73 77  0  0  0  0            999 V2000
    1.8050  -25.2595   52.3623 F   0  0  0  1  0  0
    2.1117  -24.6142   51.2363 C   0  0  0  1  0  0
    1.2010  -24.5110   50.1478 C   0  0  0  1  0  0
    3.3982  -24.0436   51.1527 C   0  0  0  1  0  0
   -0.0935  -25.0431   50.1589 N   0  0  0  1  0  0
    1.6404  -23.8394   48.9779 C   0  0  0  1  0  0
    3.8098  -23.3706   49.9885 C   0  0  0  1  0  0
   -1.0443  -24.9294   51.1711 C   0  0  0  1  0  0
    2.9259  -23.2746   48.9002 C   0  0  0  1  0  0
    5.1744  -22.7599   49.8980 C   0  0  0  1  0  0
   -0.7763  -24.3109   52.1775 O   0  0  0  1  0  0
   -2.4493  -25.5570   51.0251 C   0  0  0  1  0  0
   -3.1641  -25.0257   49.7715 C   0  0  0  1  0  0
   -3.2960  -25.3497   52.3172 C   0  0  0  1  0  0
   -2.3212  -27.1161   51.0530 C   0  0  0  1  0  0
   -4.1663  -24.0031   49.8054 C   0  0  0  1  0  0
   -2.8246  -25.5648   48.5039 C   0  0  0  1  0  0
   -4.7310  -25.9039   52.2397 C   0  0  0  1  0  0
   -3.6551  -27.9341   51.0535 C   0  0  0  1  0  0
   -4.9373  -23.7541   48.6466 C   0  0  0  1  0  0
   -4.4505  -23.1434   51.0154 C   0  0  0  1  0  0
   -3.5544  -25.2514   47.3502 C   0  0  0  1  0  0
   -4.8524  -27.3041   51.7221 N   0  0  0  1  0  0
   -4.6445  -24.3831   47.4309 C   0  0  0  1  0  0
   -5.9556  -23.0594   51.3404 C   0  0  0  1  0  0
   -3.8517  -21.7304   50.8639 C   0  0  0  1  0  0
   -6.0844  -27.9906   51.8277 C   0  0  0  1  0  0
   -7.2690  -27.3131   52.2265 C   0  0  0  1  0  0
   -6.2032  -29.3761   51.5348 C   0  0  0  1  0  0
   -8.5071  -27.9773   52.3085 C   0  0  0  1  0  0
   -7.4454  -30.0408   51.6174 C   0  0  0  1  0  0
   -8.6068  -29.3409   51.9884 C   0  0  0  1  0  0
   -9.9630  -30.0333   52.0334 C   0  0  0  1  0  0
  -10.7897  -29.8590   50.7454 C   0  0  0  1  0  0
  -10.7037  -30.0551   53.3642 C   0  0  0  1  0  0
  -10.1012  -31.3307   52.8230 C   0  0  0  1  0  0
  -10.2158  -29.9456   49.6793 O   0  0  0  1  0  0
  -12.1116  -29.6123   50.8096 O   0  0  0  1  0  0
    4.0806  -24.1249   51.9988 H   0  0
   -0.3858  -25.5996   49.2930 H   0  0
    0.9688  -23.7597   48.1231 H   0  0
    3.2382  -22.7599   47.9915 H   0  0
    5.8591  -23.5828   50.1033 H   0  0
    5.2298  -22.0810   50.7490 H   0  0
    5.3830  -22.2648   48.9496 H   0  0
   -3.3455  -24.2833   52.5373 H   0  0
   -2.7827  -25.8261   53.1525 H   0  0
   -1.7284  -27.4275   50.1929 H   0  0
   -1.7457  -27.3987   51.9345 H   0  0
   -1.9732  -26.2409   48.4257 H   0  0
   -5.1741  -25.8634   53.2348 H   0  0
   -5.3248  -25.2476   51.6035 H   0  0
   -3.4683  -28.8970   51.5290 H   0  0
   -3.9212  -28.1574   50.0203 H   0  0
   -5.7754  -23.0593   48.7010 H   0  0
   -3.9618  -23.6348   51.8567 H   0  0
   -3.2716  -25.6848   46.3909 H   0  0
   -5.2634  -24.1962   46.5533 H   0  0
   -6.3221  -24.0707   51.5166 H   0  0
   -6.4684  -22.6476   50.4712 H   0  0
   -6.1291  -22.4339   52.2161 H   0  0
   -4.2816  -21.2651   49.9769 H   0  0
   -2.7743  -21.8233   50.7276 H   0  0
   -4.0680  -21.1280   51.7462 H   0  0
   -7.2170  -26.2531   52.4749 H   0  0
   -5.3163  -29.9372   51.2402 H   0  0
   -9.3952  -27.4291   52.6228 H   0  0
   -7.5048  -31.1055   51.3917 H   0  0
  -11.7839  -30.0282   53.2211 H   0  0
  -10.0976  -29.6322   54.1654 H   0  0
   -9.1741  -31.5869   53.3358 H   0  0
  -10.8602  -31.9822   52.3899 H   0  0
  -12.1872  -28.7508   51.4052 H   0  0
  1  2  1  0
  2  3  2  0
  2  4  1  0
  3  5  1  0
  3  6  1  0
  4  7  2  0
  5  8  1  0
  6  9  2  0
  7  9  1  0
  7 10  1  0
  8 11  2  0
  8 12  1  0
 12 13  1  0
 12 14  1  0
 12 15  1  0
 13 16  2  0
 13 17  1  0
 14 18  1  0
 15 19  1  0
 16 20  1  0
 16 21  1  0
 17 22  2  0
 18 23  1  0
 19 23  1  0
 20 24  2  0
 21 25  1  0
 21 26  1  0
 22 24  1  0
 23 27  1  0
 27 28  2  0
 27 29  1  0
 28 30  1  0
 29 31  2  0
 30 32  2  0
 31 32  1  0
 32 33  1  0
 33 34  1  0
 33 35  1  0
 33 36  1  0
 34 37  2  0
 34 38  1  0
 35 36  1  0
  4 39  1  0
  5 40  1  0
  6 41  1  0
  9 42  1  0
 10 43  1  0
 10 44  1  0
 10 45  1  0
 14 46  1  0
 14 47  1  0
 15 48  1  0
 15 49  1  0
 17 50  1  0
 18 51  1  0
 18 52  1  0
 19 53  1  0
 19 54  1  0
 20 55  1  0
 21 56  1  0
 22 57  1  0
 24 58  1  0
 25 59  1  0
 25 60  1  0
 25 61  1  0
 26 62  1  0
 26 63  1  0
 26 64  1  0
 28 65  1  0
 29 66  1  0
 30 67  1  0
 31 68  1  0
 35 69  1  0
 35 70  1  0
 36 71  1  0
 36 72  1  0
 38 73  1  0
M  END
> <Name>
7

> <AbsoluteEnergy>
69.489

> <Clean Energy>
124.815

> <Column 1>
7

> <ConfNumber>
31

> <Filter_Pass>
Failed

> <IC50_nM>
39.92

> <LogP>
6.55

> <MOL_NUMBER>
4

> <QSAR_Score_pIC50>
7.399

> <RelativeEnergy>
5.92926

> <SMILES>
Cc1ccc(NC(=O)C2(c3ccccc3C(C)C)CCN(c3ccc(C4(C(=O)O)CC4)cc3)CC2)c(F)c1

> <Toxicity_Alerts>
DILI, Basic N (hERG Warning)

> <Type>
Analog

> <POSE_NUMBER>
20

> <LibDockScore>
112.0445

> <HotSpots>
4.67,-22.92,49.98,A,40,10
-3.33,-21.92,50.38,A,47,26
-10.93,-30.92,53.98,A,68,35

$$$$
7
  SciTegic05082609073D

 73 77  0  0  0  0            999 V2000
   -4.8997  -24.6147   48.3117 F   0  0  0  1  0  0
   -4.3919  -23.6501   47.5443 C   0  0  0  1  0  0
   -3.0524  -23.1958   47.6874 C   0  0  0  1  0  0
   -5.2386  -23.0705   46.5780 C   0  0  0  1  0  0
   -2.1320  -23.7162   48.6007 N   0  0  0  1  0  0
   -2.6161  -22.1320   46.8604 C   0  0  0  1  0  0
   -4.7824  -22.0240   45.7553 C   0  0  0  1  0  0
   -2.0254  -25.0172   49.0860 C   0  0  0  1  0  0
   -3.4675  -21.5559   45.9046 C   0  0  0  1  0  0
   -5.6775  -21.4067   44.7287 C   0  0  0  1  0  0
   -2.4794  -25.9555   48.4698 O   0  0  0  1  0  0
   -1.3104  -25.3009   50.4248 C   0  0  0  1  0  0
    0.0772  -24.6474   50.4727 C   0  0  0  1  0  0
   -1.1354  -26.8459   50.6673 C   0  0  0  1  0  0
   -2.3285  -24.7700   51.5105 C   0  0  0  1  0  0
    0.8818  -24.4647   49.2996 C   0  0  0  1  0  0
    0.6029  -24.1982   51.7104 C   0  0  0  1  0  0
   -0.8569  -27.2291   52.1337 C   0  0  0  1  0  0
   -2.1436  -25.3023   52.9590 C   0  0  0  1  0  0
    2.1724  -23.9065   49.4248 C   0  0  0  1  0  0
    0.4414  -24.8275   47.8970 C   0  0  0  1  0  0
    1.8832  -23.6407   51.8089 C   0  0  0  1  0  0
   -2.0259  -26.7768   52.9136 N   0  0  0  1  0  0
    2.6731  -23.5025   50.6667 C   0  0  0  1  0  0
    1.3446  -25.9057   47.2663 C   0  0  0  1  0  0
    0.3456  -23.5849   46.9909 C   0  0  0  1  0  0
   -2.9882  -27.6624   53.3808 C   0  0  0  1  0  0
   -2.6402  -28.8701   54.0379 C   0  0  0  1  0  0
   -4.3541  -27.3900   53.1466 C   0  0  0  1  0  0
   -3.6035  -29.8792   54.2106 C   0  0  0  1  0  0
   -5.3144  -28.3922   53.3317 C   0  0  0  1  0  0
   -4.9141  -29.6716   53.7478 C   0  0  0  1  0  0
   -5.8879  -30.8145   53.6239 C   0  0  0  1  0  0
   -6.3926  -30.9521   52.1789 C   0  0  0  1  0  0
   -6.8518  -31.0979   54.7629 C   0  0  0  1  0  0
   -5.7192  -32.0574   54.4821 C   0  0  0  1  0  0
   -6.3488  -29.9932   51.4339 O   0  0  0  1  0  0
   -6.8738  -32.1201   51.7609 O   0  0  0  1  0  0
   -6.2590  -23.4373   46.4667 H   0  0
   -1.4115  -23.0211   48.9784 H   0  0
   -1.5997  -21.7534   46.9682 H   0  0
   -3.1062  -20.7420   45.2760 H   0  0
   -6.5502  -21.0734   45.2903 H   0  0
   -6.0005  -22.2425   44.1080 H   0  0
   -5.2159  -20.6057   44.1513 H   0  0
   -0.3142  -27.2089   50.0492 H   0  0
   -2.0394  -27.3580   50.3376 H   0  0
   -2.2698  -23.6819   51.5351 H   0  0
   -3.3398  -25.0115   51.1833 H   0  0
   -0.0063  -24.2894   52.6096 H   0  0
   -0.7501  -28.3104   52.2196 H   0  0
    0.0416  -26.7220   52.4853 H   0  0
   -3.0065  -25.0240   53.5640 H   0  0
   -1.2376  -24.8773   53.3911 H   0  0
    2.7913  -23.7879   48.5354 H   0  0
   -0.5584  -25.2528   47.9840 H   0  0
    2.2630  -23.3147   52.7772 H   0  0
    3.6757  -23.0816   50.7421 H   0  0
    1.3139  -26.7925   47.8994 H   0  0
    2.3661  -25.5262   47.2414 H   0  0
    1.0072  -26.1488   46.2588 H   0  0
    1.3245  -23.1069   46.9536 H   0  0
   -0.3707  -22.8903   47.4298 H   0  0
    0.0275  -23.8682   45.9876 H   0  0
   -1.6257  -29.0158   54.4090 H   0  0
   -4.6618  -26.3964   52.8207 H   0  0
   -3.3359  -30.8157   54.6998 H   0  0
   -6.3685  -28.1797   53.1534 H   0  0
   -7.8038  -31.4816   54.3961 H   0  0
   -6.6421  -30.4712   55.6297 H   0  0
   -4.9070  -31.9413   55.1997 H   0  0
   -6.0683  -32.9510   53.9646 H   0  0
   -7.6458  -32.3493   52.4347 H   0  0
  1  2  1  0
  2  3  2  0
  2  4  1  0
  3  5  1  0
  3  6  1  0
  4  7  2  0
  5  8  1  0
  6  9  2  0
  7  9  1  0
  7 10  1  0
  8 11  2  0
  8 12  1  0
 12 13  1  0
 12 14  1  0
 12 15  1  0
 13 16  2  0
 13 17  1  0
 14 18  1  0
 15 19  1  0
 16 20  1  0
 16 21  1  0
 17 22  2  0
 18 23  1  0
 19 23  1  0
 20 24  2  0
 21 25  1  0
 21 26  1  0
 22 24  1  0
 23 27  1  0
 27 28  2  0
 27 29  1  0
 28 30  1  0
 29 31  2  0
 30 32  2  0
 31 32  1  0
 32 33  1  0
 33 34  1  0
 33 35  1  0
 33 36  1  0
 34 37  2  0
 34 38  1  0
 35 36  1  0
  4 39  1  0
  5 40  1  0
  6 41  1  0
  9 42  1  0
 10 43  1  0
 10 44  1  0
 10 45  1  0
 14 46  1  0
 14 47  1  0
 15 48  1  0
 15 49  1  0
 17 50  1  0
 18 51  1  0
 18 52  1  0
 19 53  1  0
 19 54  1  0
 20 55  1  0
 21 56  1  0
 22 57  1  0
 24 58  1  0
 25 59  1  0
 25 60  1  0
 25 61  1  0
 26 62  1  0
 26 63  1  0
 26 64  1  0
 28 65  1  0
 29 66  1  0
 30 67  1  0
 31 68  1  0
 35 69  1  0
 35 70  1  0
 36 71  1  0
 36 72  1  0
 38 73  1  0
M  END
> <Name>
7

> <AbsoluteEnergy>
74.6101

> <Clean Energy>
124.815

> <Column 1>
7

> <ConfNumber>
62

> <Filter_Pass>
Failed

> <IC50_nM>
39.92

> <LogP>
6.55

> <MOL_NUMBER>
4

> <QSAR_Score_pIC50>
7.399

> <RelativeEnergy>
11.0504

> <SMILES>
Cc1ccc(NC(=O)C2(c3ccccc3C(C)C)CCN(c3ccc(C4(C(=O)O)CC4)cc3)CC2)c(F)c1

> <Toxicity_Alerts>
DILI, Basic N (hERG Warning)

> <Type>
Analog

> <POSE_NUMBER>
21

> <LibDockScore>
107.18

> <HotSpots>
-4.93,-23.52,47.59,A,26,1
1.67,-24.32,50.98,A,50,22
0.27,-24.92,46.38,A,19,26

$$$$
7
  SciTegic05082609073D

 73 77  0  0  0  0            999 V2000
   -1.5937  -25.4729   52.6412 F   0  0  0  1  0  0
   -0.3560  -25.2072   52.2278 C   0  0  0  1  0  0
   -0.0918  -24.3939   51.0932 C   0  0  0  1  0  0
    0.7081  -25.7526   52.9701 C   0  0  0  1  0  0
   -1.0751  -23.8127   50.2962 N   0  0  0  1  0  0
    1.2567  -24.1391   50.7491 C   0  0  0  1  0  0
    2.0427  -25.4924   52.6133 C   0  0  0  1  0  0
   -2.2511  -24.3784   49.8180 C   0  0  0  1  0  0
    2.3128  -24.6818   51.4982 C   0  0  0  1  0  0
    3.1744  -26.0652   53.4054 C   0  0  0  1  0  0
   -2.5553  -25.5179   50.0949 O   0  0  0  1  0  0
   -3.1768  -23.5497   48.9035 C   0  0  0  1  0  0
   -2.3835  -22.8861   47.7708 C   0  0  0  1  0  0
   -3.8662  -22.5326   49.8775 C   0  0  0  1  0  0
   -4.3337  -24.4060   48.2597 C   0  0  0  1  0  0
   -1.2609  -23.5251   47.1538 C   0  0  0  1  0  0
   -2.7554  -21.5996   47.3044 C   0  0  0  1  0  0
   -4.6865  -23.2234   50.9937 C   0  0  0  1  0  0
   -5.6967  -24.3351   48.9811 C   0  0  0  1  0  0
   -0.5765  -22.8697   46.1086 C   0  0  0  1  0  0
   -0.7410  -24.8878   47.5520 C   0  0  0  1  0  0
   -2.0600  -20.9666   46.2649 C   0  0  0  1  0  0
   -5.4846  -24.3632   50.4502 N   0  0  0  1  0  0
   -0.9704  -21.6035   45.6654 C   0  0  0  1  0  0
    0.7911  -24.8898   47.7093 C   0  0  0  1  0  0
   -1.2174  -25.9902   46.5897 C   0  0  0  1  0  0
   -5.9407  -25.4186   51.2300 C   0  0  0  1  0  0
   -7.2905  -25.8413   51.1679 C   0  0  0  1  0  0
   -5.0516  -26.1105   52.0804 C   0  0  0  1  0  0
   -7.7073  -26.9938   51.8554 C   0  0  0  1  0  0
   -5.4690  -27.2558   52.7708 C   0  0  0  1  0  0
   -6.7826  -27.7307   52.6165 C   0  0  0  1  0  0
   -7.1772  -29.0486   53.2395 C   0  0  0  1  0  0
   -6.5598  -30.2398   52.4910 C   0  0  0  1  0  0
   -8.5516  -29.1503   53.8886 C   0  0  0  1  0  0
   -7.3107  -29.1508   54.7502 C   0  0  0  1  0  0
   -5.5853  -30.0517   51.7946 O   0  0  0  1  0  0
   -7.0818  -31.4605   52.6058 O   0  0  0  1  0  0
    0.4948  -26.3845   53.8322 H   0  0
   -0.9021  -22.7950   50.0145 H   0  0
    1.4796  -23.5103   49.8871 H   0  0
    3.3443  -24.4738   51.2140 H   0  0
    2.9992  -27.1410   53.3972 H   0  0
    2.9976  -25.7229   54.4250 H   0  0
    4.1639  -25.7961   53.0358 H   0  0
   -3.1008  -21.9072   50.3370 H   0  0
   -4.5274  -21.8832   49.3037 H   0  0
   -4.4716  -24.0840   47.2275 H   0  0
   -4.0166  -25.4482   48.2219 H   0  0
   -3.6021  -21.0909   47.7652 H   0  0
   -4.0075  -23.5953   51.7610 H   0  0
   -5.3617  -22.4974   51.4466 H   0  0
   -6.3091  -25.1876   48.6871 H   0  0
   -6.2056  -23.4113   48.7060 H   0  0
    0.2756  -23.3598   45.6376 H   0  0
   -1.1653  -25.1161   48.5297 H   0  0
   -2.3690  -19.9783   45.9245 H   0  0
   -0.4294  -21.1149   44.8550 H   0  0
    1.0619  -24.1592   48.4715 H   0  0
    1.2370  -24.5924   46.7602 H   0  0
    1.1440  -25.8804   47.9962 H   0  0
   -0.8687  -25.7455   45.5864 H   0  0
   -2.3073  -26.0008   46.5911 H   0  0
   -0.8303  -26.9616   46.8972 H   0  0
   -8.0109  -25.2692   50.5832 H   0  0
   -4.0300  -25.7501   52.2011 H   0  0
   -8.7469  -27.3164   51.7987 H   0  0
   -4.7744  -27.7789   53.4281 H   0  0
   -8.9696  -30.1516   53.7848 H   0  0
   -9.0555  -28.1840   53.9095 H   0  0
   -7.1556  -28.1855   55.2322 H   0  0
   -7.0687  -30.1522   55.1061 H   0  0
   -8.0862  -31.3399   52.3245 H   0  0
  1  2  1  0
  2  3  2  0
  2  4  1  0
  3  5  1  0
  3  6  1  0
  4  7  2  0
  5  8  1  0
  6  9  2  0
  7  9  1  0
  7 10  1  0
  8 11  2  0
  8 12  1  0
 12 13  1  0
 12 14  1  0
 12 15  1  0
 13 16  2  0
 13 17  1  0
 14 18  1  0
 15 19  1  0
 16 20  1  0
 16 21  1  0
 17 22  2  0
 18 23  1  0
 19 23  1  0
 20 24  2  0
 21 25  1  0
 21 26  1  0
 22 24  1  0
 23 27  1  0
 27 28  2  0
 27 29  1  0
 28 30  1  0
 29 31  2  0
 30 32  2  0
 31 32  1  0
 32 33  1  0
 33 34  1  0
 33 35  1  0
 33 36  1  0
 34 37  2  0
 34 38  1  0
 35 36  1  0
  4 39  1  0
  5 40  1  0
  6 41  1  0
  9 42  1  0
 10 43  1  0
 10 44  1  0
 10 45  1  0
 14 46  1  0
 14 47  1  0
 15 48  1  0
 15 49  1  0
 17 50  1  0
 18 51  1  0
 18 52  1  0
 19 53  1  0
 19 54  1  0
 20 55  1  0
 21 56  1  0
 22 57  1  0
 24 58  1  0
 25 59  1  0
 25 60  1  0
 25 61  1  0
 26 62  1  0
 26 63  1  0
 26 64  1  0
 28 65  1  0
 29 66  1  0
 30 67  1  0
 31 68  1  0
 35 69  1  0
 35 70  1  0
 36 71  1  0
 36 72  1  0
 38 73  1  0
M  END
> <Name>
7

> <AbsoluteEnergy>
69.5681

> <Clean Energy>
124.815

> <Column 1>
7

> <ConfNumber>
32

> <Filter_Pass>
Failed

> <IC50_nM>
39.92

> <LogP>
6.55

> <MOL_NUMBER>
4

> <QSAR_Score_pIC50>
7.399

> <RelativeEnergy>
6.00843

> <SMILES>
Cc1ccc(NC(=O)C2(c3ccccc3C(C)C)CCN(c3ccc(C4(C(=O)O)CC4)cc3)CC2)c(F)c1

> <Toxicity_Alerts>
DILI, Basic N (hERG Warning)

> <Type>
Analog

> <POSE_NUMBER>
22

> <LibDockScore>
104.6935

> <HotSpots>
1.67,-24.32,50.98,A,50,9
-4.73,-22.32,50.38,A,46,14
-2.53,-21.12,45.98,A,16,24

$$$$
8
  SciTegic05082609073D

 77 81  0  0  0  0            999 V2000
   -4.4228  -21.5138   50.7852 F   0  0  0  1  0  0
   -3.6375  -22.5413   50.3180 C   0  0  0  1  0  0
   -2.3215  -22.2925   50.6493 F   0  0  0  1  0  0
   -3.7474  -22.5891   48.9482 F   0  0  0  1  0  0
   -4.1735  -23.8122   50.9207 C   0  0  0  1  0  0
   -3.4079  -24.6254   51.7824 C   0  0  0  1  0  0
   -5.4933  -24.1928   50.6245 C   0  0  0  1  0  0
   -3.9638  -25.7826   52.3880 C   0  0  0  1  0  0
   -6.0580  -25.3250   51.2149 C   0  0  0  1  0  0
   -3.2574  -26.5624   53.2069 O   0  0  0  1  0  0
   -5.3188  -26.1184   52.1198 C   0  0  0  1  0  0
   -1.8737  -26.3263   53.4927 C   0  0  0  1  0  0
   -5.9260  -27.1906   52.7690 N   0  0  0  1  0  0
   -7.2199  -27.6660   52.5572 C   0  0  0  1  0  0
   -7.9569  -27.0902   51.7868 O   0  0  0  1  0  0
   -7.7337  -28.9228   53.3028 C   0  0  0  1  0  0
   -7.5642  -30.2197   52.4743 C   0  0  0  1  0  0
   -6.9406  -28.9414   54.6674 C   0  0  0  1  0  0
   -9.2496  -28.7079   53.6003 C   0  0  0  1  0  0
   -6.3640  -31.0101   52.4630 C   0  0  0  1  0  0
   -8.6478  -30.6844   51.6775 C   0  0  0  1  0  0
   -7.7112  -28.6840   55.9929 C   0  0  0  1  0  0
   -9.5459  -27.5669   54.5983 C   0  0  0  1  0  0
   -6.2714  -32.1380   51.6145 C   0  0  0  1  0  0
   -5.1545  -30.7326   53.3225 C   0  0  0  1  0  0
   -8.5367  -31.8117   50.8527 C   0  0  0  1  0  0
   -8.8795  -27.7458   55.9212 N   0  0  0  1  0  0
   -7.3429  -32.5334   50.8096 C   0  0  0  1  0  0
   -4.7871  -31.9423   54.2037 C   0  0  0  1  0  0
   -3.9442  -30.2531   52.4962 C   0  0  0  1  0  0
   -9.3521  -27.0785   57.0657 C   0  0  0  1  0  0
  -10.3831  -26.1060   56.9860 C   0  0  0  1  0  0
   -8.8207  -27.3613   58.3476 C   0  0  0  1  0  0
  -10.8795  -25.4735   58.1407 C   0  0  0  1  0  0
   -9.3161  -26.7266   59.5004 C   0  0  0  1  0  0
  -10.3652  -25.7973   59.4076 C   0  0  0  1  0  0
  -10.9471  -25.1622   60.6602 C   0  0  0  1  0  0
  -12.0150  -26.0279   61.3520 C   0  0  0  1  0  0
  -10.0279  -24.2849   61.5019 C   0  0  0  1  0  0
  -11.1364  -23.6522   60.6958 C   0  0  0  1  0  0
  -12.9560  -26.4267   60.7027 O   0  0  0  1  0  0
  -11.9197  -26.3386   62.6525 O   0  0  0  1  0  0
   -2.3706  -24.3603   51.9869 H   0  0
   -6.0824  -23.5979   49.9265 H   0  0
   -7.0846  -25.6007   50.9739 H   0  0
   -1.8515  -25.3019   53.8645 H   0  0
   -1.3994  -26.3134   52.5114 H   0  0
   -1.4153  -27.0388   54.1785 H   0  0
   -5.3405  -27.7013   53.5047 H   0  0
   -6.4394  -29.9056   54.7530 H   0  0
   -6.1356  -28.2096   54.6006 H   0  0
   -9.7646  -28.4957   52.6633 H   0  0
   -9.6657  -29.6347   53.9953 H   0  0
   -9.5950  -30.1460   51.7098 H   0  0
   -7.0088  -28.2988   56.7321 H   0  0
   -8.0643  -29.6406   56.3779 H   0  0
  -10.6229  -27.5023   54.7534 H   0  0
   -9.2170  -26.6229   54.1638 H   0  0
   -5.3445  -32.7109   51.5880 H   0  0
   -5.4310  -29.9137   53.9866 H   0  0
   -9.3843  -32.1256   50.2435 H   0  0
   -7.2472  -33.3985   50.1534 H   0  0
   -4.5853  -32.7940   53.5541 H   0  0
   -5.6403  -32.1779   54.8398 H   0  0
   -3.9124  -31.7191   54.8145 H   0  0
   -4.2315  -29.3451   51.9661 H   0  0
   -3.7033  -31.0248   51.7651 H   0  0
   -3.0871  -30.0608   53.1415 H   0  0
  -10.7978  -25.8445   56.0125 H   0  0
   -8.0115  -28.0854   58.4425 H   0  0
  -11.6687  -24.7269   58.0518 H   0  0
   -8.8827  -26.9575   60.4735 H   0  0
   -9.0568  -24.1511   61.0253 H   0  0
  -10.2817  -24.3416   62.5604 H   0  0
  -11.9806  -23.3697   61.3248 H   0  0
  -10.7564  -23.1806   59.7895 H   0  0
  -11.8442  -25.4078   63.1324 H   0  0
  1  2  1  0
  2  3  1  0
  2  4  1  0
  2  5  1  0
  5  6  2  0
  5  7  1  0
  6  8  1  0
  7  9  2  0
  8 10  1  0
  8 11  2  0
  9 11  1  0
 10 12  1  0
 11 13  1  0
 13 14  1  0
 14 15  2  0
 14 16  1  0
 16 17  1  0
 16 18  1  0
 16 19  1  0
 17 20  2  0
 17 21  1  0
 18 22  1  0
 19 23  1  0
 20 24  1  0
 20 25  1  0
 21 26  2  0
 22 27  1  0
 23 27  1  0
 24 28  2  0
 25 29  1  0
 25 30  1  0
 26 28  1  0
 27 31  1  0
 31 32  2  0
 31 33  1  0
 32 34  1  0
 33 35  2  0
 34 36  2  0
 35 36  1  0
 36 37  1  0
 37 38  1  0
 37 39  1  0
 37 40  1  0
 38 41  2  0
 38 42  1  0
 39 40  1  0
  6 43  1  0
  7 44  1  0
  9 45  1  0
 12 46  1  0
 12 47  1  0
 12 48  1  0
 13 49  1  0
 18 50  1  0
 18 51  1  0
 19 52  1  0
 19 53  1  0
 21 54  1  0
 22 55  1  0
 22 56  1  0
 23 57  1  0
 23 58  1  0
 24 59  1  0
 25 60  1  0
 26 61  1  0
 28 62  1  0
 29 63  1  0
 29 64  1  0
 29 65  1  0
 30 66  1  0
 30 67  1  0
 30 68  1  0
 32 69  1  0
 33 70  1  0
 34 71  1  0
 35 72  1  0
 39 73  1  0
 39 74  1  0
 40 75  1  0
 40 76  1  0
 42 77  1  0
M  END
> <Name>
8

> <AbsoluteEnergy>
77.9094

> <Clean Energy>
133.203

> <Column 1>
8

> <ConfNumber>
45

> <Filter_Pass>
Failed

> <IC50_nM>
42.74

> <LogP>
7.13

> <MOL_NUMBER>
5

> <QSAR_Score_pIC50>
7.369

> <RelativeEnergy>
12.2289

> <SMILES>
COc1cc(C(F)(F)F)ccc1NC(=O)C1(c2ccccc2C(C)C)CCN(c2ccc(C3(C(=O)O)CC3)cc2)CC1

> <Toxicity_Alerts>
DILI, Basic N (hERG Warning)

> <Type>
Analog

> <POSE_NUMBER>
1

> <LibDockScore>
140.1412

> <HotSpots>
-4.73,-22.32,50.38,A,46,1
-5.93,-24.72,51.19,A,53,7
-4.33,-32.92,55.19,A,75,24

$$$$
9
  SciTegic05082609073D

 77 81  0  0  0  0            999 V2000
   -6.1878  -22.8336   49.6484 F   0  0  0  1  0  0
   -4.9142  -22.8853   49.1450 C   0  0  0  1  0  0
   -4.9675  -22.6197   47.7968 F   0  0  0  1  0  0
   -4.1545  -21.9323   49.7837 F   0  0  0  1  0  0
   -4.3835  -24.1990   49.3839 O   0  0  0  1  0  0
   -3.1342  -24.5728   49.0938 C   0  0  0  1  0  0
   -2.6713  -25.8225   49.5923 C   0  0  0  1  0  0
   -2.2605  -23.7741   48.3174 C   0  0  0  1  0  0
   -3.5289  -26.6120   50.3604 N   0  0  0  1  0  0
   -1.3533  -26.2376   49.2858 C   0  0  0  1  0  0
   -0.9497  -24.1938   48.0333 C   0  0  0  1  0  0
   -3.2191  -27.7904   51.0325 C   0  0  0  1  0  0
   -0.5008  -25.4297   48.5224 C   0  0  0  1  0  0
   -0.0508  -23.3245   47.2158 C   0  0  0  1  0  0
   -2.1714  -28.3607   50.8181 O   0  0  0  1  0  0
   -4.1710  -28.4202   52.0756 C   0  0  0  1  0  0
   -3.3489  -28.7525   53.3425 C   0  0  0  1  0  0
   -5.3393  -27.4808   52.4893 C   0  0  0  1  0  0
   -4.8079  -29.6195   51.2838 C   0  0  0  1  0  0
   -3.4487  -29.9150   54.1905 C   0  0  0  1  0  0
   -2.3875  -27.7707   53.7085 C   0  0  0  1  0  0
   -6.4020  -28.1902   53.3397 C   0  0  0  1  0  0
   -6.3529  -29.7897   51.3515 C   0  0  0  1  0  0
   -2.5229  -30.0764   55.2508 C   0  0  0  1  0  0
   -4.4741  -31.0204   54.0784 C   0  0  0  1  0  0
   -1.5045  -27.9415   54.7808 C   0  0  0  1  0  0
   -6.9963  -29.3628   52.6373 N   0  0  0  1  0  0
   -1.5618  -29.1050   55.5445 C   0  0  0  1  0  0
   -5.3810  -31.1200   55.3243 C   0  0  0  1  0  0
   -3.8257  -32.3793   53.7509 C   0  0  0  1  0  0
   -8.1086  -30.0276   53.1620 C   0  0  0  1  0  0
   -8.5109  -29.8186   54.5031 C   0  0  0  1  0  0
   -8.8662  -30.9254   52.3720 C   0  0  0  1  0  0
   -9.6202  -30.4925   55.0382 C   0  0  0  1  0  0
   -9.9746  -31.6012   52.9084 C   0  0  0  1  0  0
  -10.3554  -31.3887   54.2443 C   0  0  0  1  0  0
  -11.5430  -32.1192   54.8230 C   0  0  0  1  0  0
  -11.2187  -33.5498   55.2191 C   0  0  0  1  0  0
  -12.9364  -31.8160   54.2937 C   0  0  0  1  0  0
  -12.5441  -31.3531   55.6746 C   0  0  0  1  0  0
  -11.3230  -34.4277   54.3946 O   0  0  0  1  0  0
  -10.8250  -33.7989   56.4661 O   0  0  0  1  0  0
   -2.6108  -22.8162   47.9330 H   0  0
   -4.5402  -26.2721   50.4416 H   0  0
   -0.9961  -27.2010   49.6495 H   0  0
    0.5147  -25.7624   48.3077 H   0  0
   -0.0211  -22.3717   47.7443 H   0  0
   -0.5896  -23.1580   46.2830 H   0  0
    0.9426  -23.7430   47.0545 H   0  0
   -4.9361  -26.6409   53.0551 H   0  0
   -5.8122  -27.0841   51.5910 H   0  0
   -4.5217  -29.5273   50.2361 H   0  0
   -4.3487  -30.5437   51.6346 H   0  0
   -2.3362  -26.8479   53.1306 H   0  0
   -7.1950  -27.4834   53.5839 H   0  0
   -5.9469  -28.5272   54.2710 H   0  0
   -6.5966  -30.8374   51.1752 H   0  0
   -6.8015  -29.2223   50.5361 H   0  0
   -2.5612  -30.9833   55.8542 H   0  0
   -5.1160  -30.7503   53.2399 H   0  0
   -0.7748  -27.1671   55.0174 H   0  0
   -0.8616  -29.2570   56.3659 H   0  0
   -5.8875  -30.1633   55.4517 H   0  0
   -4.7458  -31.2975   56.1921 H   0  0
   -6.1080  -31.9245   55.2130 H   0  0
   -3.1144  -32.6201   54.5409 H   0  0
   -3.2866  -32.2847   52.8083 H   0  0
   -4.5842  -33.1585   53.6754 H   0  0
   -7.9511  -29.1241   55.1296 H   0  0
   -8.5853  -31.0947   51.3325 H   0  0
   -9.9123  -30.3197   56.0740 H   0  0
  -10.5417  -32.2933   52.2859 H   0  0
  -13.5789  -32.6957   54.3315 H   0  0
  -12.9211  -30.9967   53.5749 H   0  0
  -12.3200  -30.2865   55.6931 H   0  0
  -12.9763  -31.9862   56.4495 H   0  0
  -11.5925  -33.4233   57.0763 H   0  0
  1  2  1  0
  2  3  1  0
  2  4  1  0
  2  5  1  0
  5  6  1  0
  6  7  2  0
  6  8  1  0
  7  9  1  0
  7 10  1  0
  8 11  2  0
  9 12  1  0
 10 13  2  0
 11 13  1  0
 11 14  1  0
 12 15  2  0
 12 16  1  0
 16 17  1  0
 16 18  1  0
 16 19  1  0
 17 20  2  0
 17 21  1  0
 18 22  1  0
 19 23  1  0
 20 24  1  0
 20 25  1  0
 21 26  2  0
 22 27  1  0
 23 27  1  0
 24 28  2  0
 25 29  1  0
 25 30  1  0
 26 28  1  0
 27 31  1  0
 31 32  2  0
 31 33  1  0
 32 34  1  0
 33 35  2  0
 34 36  2  0
 35 36  1  0
 36 37  1  0
 37 38  1  0
 37 39  1  0
 37 40  1  0
 38 41  2  0
 38 42  1  0
 39 40  1  0
  8 43  1  0
  9 44  1  0
 10 45  1  0
 13 46  1  0
 14 47  1  0
 14 48  1  0
 14 49  1  0
 18 50  1  0
 18 51  1  0
 19 52  1  0
 19 53  1  0
 21 54  1  0
 22 55  1  0
 22 56  1  0
 23 57  1  0
 23 58  1  0
 24 59  1  0
 25 60  1  0
 26 61  1  0
 28 62  1  0
 29 63  1  0
 29 64  1  0
 29 65  1  0
 30 66  1  0
 30 67  1  0
 30 68  1  0
 32 69  1  0
 33 70  1  0
 34 71  1  0
 35 72  1  0
 39 73  1  0
 39 74  1  0
 40 75  1  0
 40 76  1  0
 42 77  1  0
M  END
> <Name>
9

> <AbsoluteEnergy>
78.2413

> <Clean Energy>
127.708

> <Column 1>
9

> <ConfNumber>
78

> <Filter_Pass>
Failed

> <IC50_nM>
54.94

> <LogP>
7.31

> <MOL_NUMBER>
6

> <QSAR_Score_pIC50>
7.26

> <RelativeEnergy>
12.5582

> <SMILES>
Cc1ccc(NC(=O)C2(c3ccccc3C(C)C)CCN(c3ccc(C4(C(=O)O)CC4)cc3)CC2)c(OC(F)(F)F)c1

> <Toxicity_Alerts>
DILI, Basic N (hERG Warning)

> <Type>
Analog

> <POSE_NUMBER>
1

> <LibDockScore>
141.7607

> <HotSpots>
-3.33,-21.92,50.38,A,47,3
-1.73,-29.72,55.59,A,76,28
-12.93,-31.72,54.98,A,73,40

$$$$
9
  SciTegic05082609073D

 77 81  0  0  0  0            999 V2000
   -5.6612  -21.9878   46.4930 F   0  0  0  1  0  0
   -4.7369  -23.0109   46.5198 C   0  0  0  1  0  0
   -5.3748  -24.2220   46.3549 F   0  0  0  1  0  0
   -3.8658  -22.8217   45.4757 F   0  0  0  1  0  0
   -3.9848  -23.0054   47.7471 O   0  0  0  1  0  0
   -4.5345  -23.0695   48.9636 C   0  0  0  1  0  0
   -3.7396  -23.5321   50.0461 C   0  0  0  1  0  0
   -5.8748  -22.6914   49.2208 C   0  0  0  1  0  0
   -2.4454  -23.9808   49.8364 N   0  0  0  1  0  0
   -4.2837  -23.5714   51.3488 C   0  0  0  1  0  0
   -6.4110  -22.7441   50.5189 C   0  0  0  1  0  0
   -1.4936  -24.1837   50.8259 C   0  0  0  1  0  0
   -5.6076  -23.1843   51.5826 C   0  0  0  1  0  0
   -7.8275  -22.3328   50.7561 C   0  0  0  1  0  0
   -1.4667  -23.4660   51.8023 O   0  0  0  1  0  0
   -0.4607  -25.3191   50.7353 C   0  0  0  1  0  0
    0.9262  -24.7619   50.3808 C   0  0  0  1  0  0
   -0.8007  -26.5213   49.7976 C   0  0  0  1  0  0
   -0.5156  -25.9647   52.1515 C   0  0  0  1  0  0
    1.2683  -24.3278   49.0585 C   0  0  0  1  0  0
    1.9248  -24.6637   51.3886 C   0  0  0  1  0  0
   -2.0325  -27.3960   50.1666 C   0  0  0  1  0  0
   -1.9275  -26.4036   52.5670 C   0  0  0  1  0  0
    2.5497  -23.7807   48.8160 C   0  0  0  1  0  0
    0.3280  -24.4157   47.8772 C   0  0  0  1  0  0
    3.1942  -24.1349   51.1204 C   0  0  0  1  0  0
   -2.6732  -27.1105   51.4869 N   0  0  0  1  0  0
    3.5068  -23.6878   49.8339 C   0  0  0  1  0  0
    0.8511  -25.3393   46.7599 C   0  0  0  1  0  0
   -0.0357  -23.0234   47.3288 C   0  0  0  1  0  0
   -3.9805  -27.5041   51.7230 C   0  0  0  1  0  0
   -4.9192  -26.5893   52.2462 C   0  0  0  1  0  0
   -4.3891  -28.8282   51.4544 C   0  0  0  1  0  0
   -6.2207  -27.0090   52.5611 C   0  0  0  1  0  0
   -5.6867  -29.2531   51.7909 C   0  0  0  1  0  0
   -6.5966  -28.3541   52.3794 C   0  0  0  1  0  0
   -7.9596  -28.8300   52.8417 C   0  0  0  1  0  0
   -8.3194  -28.2996   54.2331 C   0  0  0  1  0  0
   -9.0792  -28.9721   51.8213 C   0  0  0  1  0  0
   -8.4486  -30.2072   52.4195 C   0  0  0  1  0  0
   -9.3115  -27.6198   54.3836 O   0  0  0  1  0  0
   -7.5181  -28.6035   55.2596 O   0  0  0  1  0  0
   -6.5025  -22.3531   48.3964 H   0  0
   -2.1557  -24.1881   48.8274 H   0  0
   -3.6653  -23.9071   52.1813 H   0  0
   -6.0160  -23.2246   52.5924 H   0  0
   -8.4200  -22.9621   50.0920 H   0  0
   -7.8936  -21.3132   50.3764 H   0  0
   -8.1428  -22.4116   51.7965 H   0  0
   -0.9468  -26.1363   48.7884 H   0  0
    0.0732  -27.1705   49.7428 H   0  0
   -0.1401  -25.2486   52.8824 H   0  0
    0.1431  -26.8330   52.1701 H   0  0
    1.6964  -25.0092   52.3969 H   0  0
   -2.7858  -27.2797   49.3874 H   0  0
   -1.7318  -28.4436   50.1509 H   0  0
   -2.4969  -25.5249   52.8698 H   0  0
   -1.8524  -27.0629   53.4317 H   0  0
    2.7974  -23.4240   47.8162 H   0  0
   -0.5861  -24.8733   48.2555 H   0  0
    3.9377  -24.0723   51.9150 H   0  0
    4.4909  -23.2688   49.6238 H   0  0
    0.9976  -26.3321   47.1853 H   0  0
    1.8167  -24.9554   46.4308 H   0  0
    0.1507  -25.3797   45.9257 H   0  0
    0.8831  -22.5205   47.0271 H   0  0
   -0.5060  -22.4499   48.1275 H   0  0
   -0.7131  -23.1116   46.4794 H   0  0
   -4.6315  -25.5503   52.4067 H   0  0
   -3.6954  -29.5249   50.9838 H   0  0
   -6.9438  -26.2910   52.9480 H   0  0
   -5.9891  -30.2819   51.5955 H   0  0
   -8.7224  -28.7891   50.8077 H   0  0
  -10.0527  -28.7625   52.2646 H   0  0
   -9.0867  -30.6560   53.1807 H   0  0
   -7.7555  -30.6816   51.7248 H   0  0
   -6.5665  -28.2592   54.9797 H   0  0
  1  2  1  0
  2  3  1  0
  2  4  1  0
  2  5  1  0
  5  6  1  0
  6  7  2  0
  6  8  1  0
  7  9  1  0
  7 10  1  0
  8 11  2  0
  9 12  1  0
 10 13  2  0
 11 13  1  0
 11 14  1  0
 12 15  2  0
 12 16  1  0
 16 17  1  0
 16 18  1  0
 16 19  1  0
 17 20  2  0
 17 21  1  0
 18 22  1  0
 19 23  1  0
 20 24  1  0
 20 25  1  0
 21 26  2  0
 22 27  1  0
 23 27  1  0
 24 28  2  0
 25 29  1  0
 25 30  1  0
 26 28  1  0
 27 31  1  0
 31 32  2  0
 31 33  1  0
 32 34  1  0
 33 35  2  0
 34 36  2  0
 35 36  1  0
 36 37  1  0
 37 38  1  0
 37 39  1  0
 37 40  1  0
 38 41  2  0
 38 42  1  0
 39 40  1  0
  8 43  1  0
  9 44  1  0
 10 45  1  0
 13 46  1  0
 14 47  1  0
 14 48  1  0
 14 49  1  0
 18 50  1  0
 18 51  1  0
 19 52  1  0
 19 53  1  0
 21 54  1  0
 22 55  1  0
 22 56  1  0
 23 57  1  0
 23 58  1  0
 24 59  1  0
 25 60  1  0
 26 61  1  0
 28 62  1  0
 29 63  1  0
 29 64  1  0
 29 65  1  0
 30 66  1  0
 30 67  1  0
 30 68  1  0
 32 69  1  0
 33 70  1  0
 34 71  1  0
 35 72  1  0
 39 73  1  0
 39 74  1  0
 40 75  1  0
 40 76  1  0
 42 77  1  0
M  END
> <Name>
9

> <AbsoluteEnergy>
76.0132

> <Clean Energy>
127.708

> <Column 1>
9

> <ConfNumber>
60

> <Filter_Pass>
Failed

> <IC50_nM>
54.94

> <LogP>
7.31

> <MOL_NUMBER>
6

> <QSAR_Score_pIC50>
7.26

> <RelativeEnergy>
10.3301

> <SMILES>
Cc1ccc(NC(=O)C2(c3ccccc3C(C)C)CCN(c3ccc(C4(C(=O)O)CC4)cc3)CC2)c(OC(F)(F)F)c1

> <Toxicity_Alerts>
DILI, Basic N (hERG Warning)

> <Type>
Analog

> <POSE_NUMBER>
2

> <LibDockScore>
136.257

> <HotSpots>
-5.13,-22.92,46.19,A,18,1
3.07,-24.52,50.38,A,43,28
-9.53,-30.12,52.78,A,62,40

$$$$
9
  SciTegic05082609073D

 77 81  0  0  0  0            999 V2000
    1.6736  -22.9792   48.7589 F   0  0  0  1  0  0
    1.2778  -24.2855   48.5791 C   0  0  0  1  0  0
    0.7282  -24.4043   47.3290 F   0  0  0  1  0  0
    2.3682  -25.1198   48.6585 F   0  0  0  1  0  0
    0.2805  -24.6536   49.5451 O   0  0  0  1  0  0
    0.4407  -24.5714   50.8693 C   0  0  0  1  0  0
   -0.7168  -24.6537   51.6899 C   0  0  0  1  0  0
    1.7059  -24.3977   51.4806 C   0  0  0  1  0  0
   -1.9629  -24.8243   51.0934 N   0  0  0  1  0  0
   -0.5794  -24.5676   53.0943 C   0  0  0  1  0  0
    1.8303  -24.3075   52.8773 C   0  0  0  1  0  0
   -3.2060  -24.7726   51.7133 C   0  0  0  1  0  0
    0.6818  -24.3922   53.6811 C   0  0  0  1  0  0
    3.1800  -24.1218   53.4919 C   0  0  0  1  0  0
   -3.3408  -24.2213   52.7837 O   0  0  0  1  0  0
   -4.4359  -25.4026   51.0353 C   0  0  0  1  0  0
   -4.5230  -24.9546   49.5670 C   0  0  0  1  0  0
   -4.2264  -26.9477   51.2483 C   0  0  0  1  0  0
   -5.7568  -25.0307   51.7951 C   0  0  0  1  0  0
   -5.2723  -23.8027   49.1527 C   0  0  0  1  0  0
   -3.8259  -25.6764   48.5665 C   0  0  0  1  0  0
   -5.4658  -27.8524   51.0333 C   0  0  0  1  0  0
   -6.9677  -25.9239   51.4675 C   0  0  0  1  0  0
   -5.3256  -23.4626   47.7824 C   0  0  0  1  0  0
   -6.0218  -22.8890   50.0995 C   0  0  0  1  0  0
   -3.8918  -25.3203   47.2135 C   0  0  0  1  0  0
   -6.6342  -27.3340   51.7869 N   0  0  0  1  0  0
   -4.6454  -24.2138   46.8191 C   0  0  0  1  0  0
   -7.5316  -23.1965   50.1242 C   0  0  0  1  0  0
   -5.7565  -21.4027   49.7854 C   0  0  0  1  0  0
   -7.3261  -28.0817   52.7367 C   0  0  0  1  0  0
   -6.8132  -29.3223   53.1792 C   0  0  0  1  0  0
   -8.5444  -27.6190   53.2894 C   0  0  0  1  0  0
   -7.4764  -30.0598   54.1714 C   0  0  0  1  0  0
   -9.2054  -28.3567   54.2882 C   0  0  0  1  0  0
   -8.6600  -29.5678   54.7496 C   0  0  0  1  0  0
   -9.3225  -30.3303   55.8749 C   0  0  0  1  0  0
   -9.7391  -29.4257   57.0356 C   0  0  0  1  0  0
   -8.8263  -31.7320   56.2010 C   0  0  0  1  0  0
  -10.1741  -31.5494   55.5431 C   0  0  0  1  0  0
  -10.6245  -29.7844   57.7808 O   0  0  0  1  0  0
   -9.1133  -28.2567   57.2017 O   0  0  0  1  0  0
    2.5980  -24.3329   50.8576 H   0  0
   -1.9640  -25.0166   50.0408 H   0  0
   -1.4636  -24.6383   53.7278 H   0  0
    0.7712  -24.3213   54.7651 H   0  0
    3.5793  -23.2178   53.0321 H   0  0
    3.7756  -24.9586   53.1270 H   0  0
    3.1656  -24.0641   54.5803 H   0  0
   -3.4359  -27.2840   50.5774 H   0  0
   -3.8552  -27.1099   52.2602 H   0  0
   -6.0147  -23.9971   51.5643 H   0  0
   -5.5686  -25.0795   52.8676 H   0  0
   -3.2203  -26.5344   48.8585 H   0  0
   -5.2389  -28.8628   51.3734 H   0  0
   -5.7089  -27.8842   49.9712 H   0  0
   -7.8243  -25.6090   52.0634 H   0  0
   -7.2083  -25.8385   50.4078 H   0  0
   -5.9091  -22.5966   47.4697 H   0  0
   -5.6369  -23.0870   51.0999 H   0  0
   -3.3545  -25.9073   46.4686 H   0  0
   -4.7033  -23.9369   45.7664 H   0  0
   -7.6667  -24.2328   50.4338 H   0  0
   -7.9238  -23.0765   49.1143 H   0  0
   -8.0484  -22.5269   50.8117 H   0  0
   -6.0708  -21.2032   48.7609 H   0  0
   -4.6859  -21.2161   49.8697 H   0  0
   -6.3045  -20.7632   50.4774 H   0  0
   -5.8920  -29.7104   52.7446 H   0  0
   -8.9747  -26.6814   52.9374 H   0  0
   -7.0723  -31.0188   54.4956 H   0  0
  -10.1427  -27.9886   54.7055 H   0  0
   -8.9243  -31.9539   57.2637 H   0  0
   -8.0723  -32.0648   55.4877 H   0  0
  -10.1377  -31.7849   54.4795 H   0  0
  -10.9897  -31.6724   56.2557 H   0  0
   -9.2343  -27.7495   56.2903 H   0  0
  1  2  1  0
  2  3  1  0
  2  4  1  0
  2  5  1  0
  5  6  1  0
  6  7  2  0
  6  8  1  0
  7  9  1  0
  7 10  1  0
  8 11  2  0
  9 12  1  0
 10 13  2  0
 11 13  1  0
 11 14  1  0
 12 15  2  0
 12 16  1  0
 16 17  1  0
 16 18  1  0
 16 19  1  0
 17 20  2  0
 17 21  1  0
 18 22  1  0
 19 23  1  0
 20 24  1  0
 20 25  1  0
 21 26  2  0
 22 27  1  0
 23 27  1  0
 24 28  2  0
 25 29  1  0
 25 30  1  0
 26 28  1  0
 27 31  1  0
 31 32  2  0
 31 33  1  0
 32 34  1  0
 33 35  2  0
 34 36  2  0
 35 36  1  0
 36 37  1  0
 37 38  1  0
 37 39  1  0
 37 40  1  0
 38 41  2  0
 38 42  1  0
 39 40  1  0
  8 43  1  0
  9 44  1  0
 10 45  1  0
 13 46  1  0
 14 47  1  0
 14 48  1  0
 14 49  1  0
 18 50  1  0
 18 51  1  0
 19 52  1  0
 19 53  1  0
 21 54  1  0
 22 55  1  0
 22 56  1  0
 23 57  1  0
 23 58  1  0
 24 59  1  0
 25 60  1  0
 26 61  1  0
 28 62  1  0
 29 63  1  0
 29 64  1  0
 29 65  1  0
 30 66  1  0
 30 67  1  0
 30 68  1  0
 32 69  1  0
 33 70  1  0
 34 71  1  0
 35 72  1  0
 39 73  1  0
 39 74  1  0
 40 75  1  0
 40 76  1  0
 42 77  1  0
M  END
> <Name>
9

> <AbsoluteEnergy>
68.5443

> <Clean Energy>
127.708

> <Column 1>
9

> <ConfNumber>
10

> <Filter_Pass>
Failed

> <IC50_nM>
54.94

> <LogP>
7.31

> <MOL_NUMBER>
6

> <QSAR_Score_pIC50>
7.26

> <RelativeEnergy>
2.86113

> <SMILES>
Cc1ccc(NC(=O)C2(c3ccccc3C(C)C)CCN(c3ccc(C4(C(=O)O)CC4)cc3)CC2)c(OC(F)(F)F)c1

> <Toxicity_Alerts>
DILI, Basic N (hERG Warning)

> <Type>
Analog

> <POSE_NUMBER>
3

> <LibDockScore>
130.6845

> <HotSpots>
1.27,-23.52,47.59,A,27,1
0.87,-24.32,52.78,A,63,13
-5.53,-22.92,48.98,A,33,29

$$$$
9
  SciTegic05082609073D

 77 81  0  0  0  0            999 V2000
   -8.3541  -31.9187   51.3941 F   0  0  0  1  0  0
   -7.2301  -31.1330   51.5088 C   0  0  0  1  0  0
   -6.6133  -31.0478   50.2855 F   0  0  0  1  0  0
   -6.3442  -31.6903   52.4004 F   0  0  0  1  0  0
   -7.5714  -29.8016   51.9116 O   0  0  0  1  0  0
   -8.0952  -29.4653   53.0918 C   0  0  0  1  0  0
   -8.1461  -28.0827   53.4192 C   0  0  0  1  0  0
   -8.6076  -30.4091   54.0093 C   0  0  0  1  0  0
   -7.5791  -27.1372   52.5711 N   0  0  0  1  0  0
   -8.7858  -27.6687   54.6044 C   0  0  0  1  0  0
   -9.2165  -29.9905   55.2071 C   0  0  0  1  0  0
   -6.2229  -27.1105   52.2720 C   0  0  0  1  0  0
   -9.3152  -28.6172   55.4935 C   0  0  0  1  0  0
   -9.7624  -30.9893   56.1748 C   0  0  0  1  0  0
   -5.5595  -28.1175   52.4228 O   0  0  0  1  0  0
   -5.5323  -25.8488   51.7333 C   0  0  0  1  0  0
   -4.1917  -26.2683   51.0838 C   0  0  0  1  0  0
   -5.3294  -24.6987   52.7820 C   0  0  0  1  0  0
   -6.5512  -25.1876   50.7172 C   0  0  0  1  0  0
   -3.0559  -26.6957   51.8478 C   0  0  0  1  0  0
   -4.0547  -26.2608   49.6697 C   0  0  0  1  0  0
   -4.6022  -23.4566   52.1957 C   0  0  0  1  0  0
   -6.2831  -23.6954   50.3722 C   0  0  0  1  0  0
   -1.8238  -26.9313   51.1945 C   0  0  0  1  0  0
   -3.0912  -26.9395   53.3386 C   0  0  0  1  0  0
   -2.8350  -26.5376   49.0386 C   0  0  0  1  0  0
   -4.8926  -23.3069   50.7363 N   0  0  0  1  0  0
   -1.7115  -26.8543   49.8032 C   0  0  0  1  0  0
   -2.0550  -26.0817   54.0907 C   0  0  0  1  0  0
   -2.9164  -28.4333   53.6797 C   0  0  0  1  0  0
   -3.9060  -22.9733   49.8053 C   0  0  0  1  0  0
   -4.2004  -22.9331   48.4220 C   0  0  0  1  0  0
   -2.5750  -22.7166   50.2114 C   0  0  0  1  0  0
   -3.1753  -22.8168   47.4736 C   0  0  0  1  0  0
   -1.5475  -22.5952   49.2614 C   0  0  0  1  0  0
   -1.8395  -22.7173   47.8926 C   0  0  0  1  0  0
   -0.7253  -22.7807   46.8733 C   0  0  0  1  0  0
   -0.2313  -24.2184   46.6421 C   0  0  0  1  0  0
   -0.7550  -21.8222   45.6939 C   0  0  0  1  0  0
    0.2595  -21.6238   46.7965 C   0  0  0  1  0  0
   -1.0417  -25.1030   46.4748 O   0  0  0  1  0  0
    1.0752  -24.4915   46.6264 O   0  0  0  1  0  0
   -8.5306  -31.4734   53.7872 H   0  0
   -8.2152  -26.3985   52.1300 H   0  0
   -8.8700  -26.6061   54.8321 H   0  0
   -9.8049  -28.2879   56.4099 H   0  0
   -8.9196  -31.6414   56.4040 H   0  0
  -10.4713  -31.5788   55.5933 H   0  0
  -10.2107  -30.5516   57.0667 H   0  0
   -4.7506  -25.0824   53.6222 H   0  0
   -6.3033  -24.3906   53.1625 H   0  0
   -7.5574  -25.2721   51.1277 H   0  0
   -6.5426  -25.7635   49.7918 H   0  0
   -4.9263  -26.0324   49.0563 H   0  0
   -3.5272  -23.5671   52.3380 H   0  0
   -4.9363  -22.5622   52.7216 H   0  0
   -6.4307  -23.5408   49.3034 H   0  0
   -6.9859  -23.0665   50.9187 H   0  0
   -0.9436  -27.1780   51.7881 H   0  0
   -4.0806  -26.6329   53.6779 H   0  0
   -2.7637  -26.5056   47.9514 H   0  0
   -0.7529  -27.0404   49.3189 H   0  0
   -2.2659  -25.0318   53.8875 H   0  0
   -1.0645  -26.3229   53.7048 H   0  0
   -2.1005  -26.2757   55.1623 H   0  0
   -1.9608  -28.7699   53.2776 H   0  0
   -3.7187  -28.9935   53.1994 H   0  0
   -2.9451  -28.5851   54.7587 H   0  0
   -5.2369  -22.9933   48.0900 H   0  0
   -2.3449  -22.6121   51.2717 H   0  0
   -3.4154  -22.8036   46.4105 H   0  0
   -0.5242  -22.4064   49.5860 H   0  0
   -1.5795  -21.1137   45.7743 H   0  0
   -0.3029  -22.2657   44.8068 H   0  0
    1.2512  -21.9617   46.4957 H   0  0
   -0.0262  -20.8109   47.4641 H   0  0
    1.4273  -24.1338   47.5487 H   0  0
  1  2  1  0
  2  3  1  0
  2  4  1  0
  2  5  1  0
  5  6  1  0
  6  7  2  0
  6  8  1  0
  7  9  1  0
  7 10  1  0
  8 11  2  0
  9 12  1  0
 10 13  2  0
 11 13  1  0
 11 14  1  0
 12 15  2  0
 12 16  1  0
 16 17  1  0
 16 18  1  0
 16 19  1  0
 17 20  2  0
 17 21  1  0
 18 22  1  0
 19 23  1  0
 20 24  1  0
 20 25  1  0
 21 26  2  0
 22 27  1  0
 23 27  1  0
 24 28  2  0
 25 29  1  0
 25 30  1  0
 26 28  1  0
 27 31  1  0
 31 32  2  0
 31 33  1  0
 32 34  1  0
 33 35  2  0
 34 36  2  0
 35 36  1  0
 36 37  1  0
 37 38  1  0
 37 39  1  0
 37 40  1  0
 38 41  2  0
 38 42  1  0
 39 40  1  0
  8 43  1  0
  9 44  1  0
 10 45  1  0
 13 46  1  0
 14 47  1  0
 14 48  1  0
 14 49  1  0
 18 50  1  0
 18 51  1  0
 19 52  1  0
 19 53  1  0
 21 54  1  0
 22 55  1  0
 22 56  1  0
 23 57  1  0
 23 58  1  0
 24 59  1  0
 25 60  1  0
 26 61  1  0
 28 62  1  0
 29 63  1  0
 29 64  1  0
 29 65  1  0
 30 66  1  0
 30 67  1  0
 30 68  1  0
 32 69  1  0
 33 70  1  0
 34 71  1  0
 35 72  1  0
 39 73  1  0
 39 74  1  0
 40 75  1  0
 40 76  1  0
 42 77  1  0
M  END
> <Name>
9

> <AbsoluteEnergy>
83.2949

> <Clean Energy>
127.708

> <Column 1>
9

> <ConfNumber>
115

> <Filter_Pass>
Failed

> <IC50_nM>
54.94

> <LogP>
7.31

> <MOL_NUMBER>
6

> <QSAR_Score_pIC50>
7.26

> <RelativeEnergy>
17.6118

> <SMILES>
Cc1ccc(NC(=O)C2(c3ccccc3C(C)C)CCN(c3ccc(C4(C(=O)O)CC4)cc3)CC2)c(OC(F)(F)F)c1

> <Toxicity_Alerts>
DILI, Basic N (hERG Warning)

> <Type>
Analog

> <POSE_NUMBER>
4

> <LibDockScore>
126.794

> <HotSpots>
-7.13,-31.92,50.98,A,49,1
-8.73,-28.12,54.38,A,70,10
-2.53,-22.32,48.19,A,29,35

$$$$
9
  SciTegic05082609073D

 77 81  0  0  0  0            999 V2000
   -4.8148  -22.4212   46.4388 F   0  0  0  1  0  0
   -4.3980  -23.7278   46.5834 C   0  0  0  1  0  0
   -5.4518  -24.5841   46.3443 F   0  0  0  1  0  0
   -3.4145  -23.9634   45.6551 F   0  0  0  1  0  0
   -3.8520  -23.9615   47.8947 O   0  0  0  1  0  0
   -4.5387  -23.8085   49.0310 C   0  0  0  1  0  0
   -3.9086  -24.1479   50.2579 C   0  0  0  1  0  0
   -5.8667  -23.3180   49.0648 C   0  0  0  1  0  0
   -2.6369  -24.6983   50.2752 N   0  0  0  1  0  0
   -4.5976  -23.9578   51.4760 C   0  0  0  1  0  0
   -6.5485  -23.1422   50.2812 C   0  0  0  1  0  0
   -1.7424  -24.6246   51.3337 C   0  0  0  1  0  0
   -5.9061  -23.4628   51.4876 C   0  0  0  1  0  0
   -7.9472  -22.6174   50.2812 C   0  0  0  1  0  0
   -1.7705  -23.6785   52.0910 O   0  0  0  1  0  0
   -0.7060  -25.7297   51.5965 C   0  0  0  1  0  0
    0.7206  -25.1736   51.4750 C   0  0  0  1  0  0
   -0.8329  -27.0421   50.7588 C   0  0  0  1  0  0
   -1.0539  -26.2093   53.0369 C   0  0  0  1  0  0
    1.2511  -24.6730   50.2413 C   0  0  0  1  0  0
    1.5653  -25.1444   52.6188 C   0  0  0  1  0  0
   -2.1090  -27.9069   50.9646 C   0  0  0  1  0  0
   -2.5187  -26.6417   53.1982 C   0  0  0  1  0  0
    2.5574  -24.1315   50.2149 C   0  0  0  1  0  0
    0.4890  -24.6833   48.9350 C   0  0  0  1  0  0
    2.8633  -24.6196   52.5641 C   0  0  0  1  0  0
   -3.0153  -27.4915   52.0787 N   0  0  0  1  0  0
    3.3595  -24.1076   51.3624 C   0  0  0  1  0  0
    1.1618  -25.5507   47.8534 C   0  0  0  1  0  0
    0.2146  -23.2582   48.4198 C   0  0  0  1  0  0
   -4.3403  -27.8963   52.0823 C   0  0  0  1  0  0
   -5.3723  -26.9636   52.3208 C   0  0  0  1  0  0
   -4.6763  -29.2491   51.8590 C   0  0  0  1  0  0
   -6.7075  -27.3874   52.4049 C   0  0  0  1  0  0
   -6.0119  -29.6759   51.9654 C   0  0  0  1  0  0
   -7.0288  -28.7525   52.2748 C   0  0  0  1  0  0
   -8.4535  -29.2209   52.4954 C   0  0  0  1  0  0
   -8.9667  -28.8806   53.8981 C   0  0  0  1  0  0
   -9.4411  -29.1564   51.3397 C   0  0  0  1  0  0
   -8.9305  -30.4956   51.8160 C   0  0  0  1  0  0
   -9.4479  -29.7488   54.5936 O   0  0  0  1  0  0
   -8.8701  -27.6168   54.3246 O   0  0  0  1  0  0
   -6.3697  -23.0721   48.1296 H   0  0
   -2.3181  -25.2239   49.3994 H   0  0
   -4.1044  -24.1994   52.4175 H   0  0
   -6.4276  -23.3258   52.4349 H   0  0
   -8.5072  -23.3041   49.6463 H   0  0
   -7.8921  -21.6649   49.7542 H   0  0
   -8.3830  -22.5193   51.2755 H   0  0
   -0.7656  -26.7808   49.7027 H   0  0
    0.0372  -27.6654   50.9651 H   0  0
   -0.8456  -25.4023   53.7393 H   0  0
   -0.4082  -27.0485   53.2958 H   0  0
    1.1929  -25.5409   53.5634 H   0  0
   -2.6820  -27.9049   50.0374 H   0  0
   -1.8048  -28.9393   51.1369 H   0  0
   -3.1449  -25.7523   53.2686 H   0  0
   -2.6232  -27.1942   54.1320 H   0  0
    2.9478  -23.7244   49.2822 H   0  0
   -0.4722  -25.1490   49.1527 H   0  0
    3.4859  -24.6107   53.4588 H   0  0
    4.3660  -23.6916   51.3184 H   0  0
    1.2408  -26.5673   48.2386 H   0  0
    2.1665  -25.1620   47.6875 H   0  0
    0.5877  -25.5359   46.9269 H   0  0
    1.1696  -22.7515   48.2810 H   0  0
   -0.3622  -22.7235   49.1744 H   0  0
   -0.3348  -23.2905   47.4789 H   0  0
   -5.1308  -25.9075   52.4404 H   0  0
   -3.8966  -29.9664   51.6028 H   0  0
   -7.4992  -26.6570   52.5716 H   0  0
   -6.2609  -30.7253   51.8078 H   0  0
   -8.9548  -28.8465   50.4147 H   0  0
  -10.4549  -28.9644   51.6909 H   0  0
   -9.6729  -31.0173   52.4200 H   0  0
   -8.1719  -30.8987   51.1451 H   0  0
   -9.3788  -27.0427   53.6076 H   0  0
  1  2  1  0
  2  3  1  0
  2  4  1  0
  2  5  1  0
  5  6  1  0
  6  7  2  0
  6  8  1  0
  7  9  1  0
  7 10  1  0
  8 11  2  0
  9 12  1  0
 10 13  2  0
 11 13  1  0
 11 14  1  0
 12 15  2  0
 12 16  1  0
 16 17  1  0
 16 18  1  0
 16 19  1  0
 17 20  2  0
 17 21  1  0
 18 22  1  0
 19 23  1  0
 20 24  1  0
 20 25  1  0
 21 26  2  0
 22 27  1  0
 23 27  1  0
 24 28  2  0
 25 29  1  0
 25 30  1  0
 26 28  1  0
 27 31  1  0
 31 32  2  0
 31 33  1  0
 32 34  1  0
 33 35  2  0
 34 36  2  0
 35 36  1  0
 36 37  1  0
 37 38  1  0
 37 39  1  0
 37 40  1  0
 38 41  2  0
 38 42  1  0
 39 40  1  0
  8 43  1  0
  9 44  1  0
 10 45  1  0
 13 46  1  0
 14 47  1  0
 14 48  1  0
 14 49  1  0
 18 50  1  0
 18 51  1  0
 19 52  1  0
 19 53  1  0
 21 54  1  0
 22 55  1  0
 22 56  1  0
 23 57  1  0
 23 58  1  0
 24 59  1  0
 25 60  1  0
 26 61  1  0
 28 62  1  0
 29 63  1  0
 29 64  1  0
 29 65  1  0
 30 66  1  0
 30 67  1  0
 30 68  1  0
 32 69  1  0
 33 70  1  0
 34 71  1  0
 35 72  1  0
 39 73  1  0
 39 74  1  0
 40 75  1  0
 40 76  1  0
 42 77  1  0
M  END
> <Name>
9

> <AbsoluteEnergy>
76.0132

> <Clean Energy>
127.708

> <Column 1>
9

> <ConfNumber>
60

> <Filter_Pass>
Failed

> <IC50_nM>
54.94

> <LogP>
7.31

> <MOL_NUMBER>
6

> <QSAR_Score_pIC50>
7.26

> <RelativeEnergy>
10.3301

> <SMILES>
Cc1ccc(NC(=O)C2(c3ccccc3C(C)C)CCN(c3ccc(C4(C(=O)O)CC4)cc3)CC2)c(OC(F)(F)F)c1

> <Toxicity_Alerts>
DILI, Basic N (hERG Warning)

> <Type>
Analog

> <POSE_NUMBER>
5

> <LibDockScore>
124.6793

> <HotSpots>
-4.53,-24.52,46.19,A,17,4
2.27,-24.92,52.19,A,58,26
-9.53,-30.12,52.78,A,62,39

$$$$
9
  SciTegic05082609073D

 77 81  0  0  0  0            999 V2000
   -2.7727  -29.2240   48.5763 F   0  0  0  1  0  0
   -2.0538  -28.7824   49.6559 C   0  0  0  1  0  0
   -1.3162  -27.6884   49.2731 F   0  0  0  1  0  0
   -1.2090  -29.7847   50.0688 F   0  0  0  1  0  0
   -2.9638  -28.4391   50.7087 O   0  0  0  1  0  0
   -2.5227  -27.8755   51.8230 C   0  0  0  1  0  0
   -2.1479  -26.5028   51.9114 C   0  0  0  1  0  0
   -2.4343  -28.6998   52.9591 C   0  0  0  1  0  0
   -2.3677  -25.5372   50.9229 N   0  0  0  1  0  0
   -1.5327  -26.0578   53.1057 C   0  0  0  1  0  0
   -1.8792  -28.2230   54.1575 C   0  0  0  1  0  0
   -3.4731  -25.3956   50.0919 C   0  0  0  1  0  0
   -1.3995  -26.9057   54.2160 C   0  0  0  1  0  0
   -1.8040  -29.1198   55.3494 C   0  0  0  1  0  0
   -4.2080  -26.3277   49.8627 O   0  0  0  1  0  0
   -3.8237  -24.0255   49.4894 C   0  0  0  1  0  0
   -2.7573  -23.6057   48.4616 C   0  0  0  1  0  0
   -5.2697  -24.0349   48.8580 C   0  0  0  1  0  0
   -3.9748  -23.0230   50.7031 C   0  0  0  1  0  0
   -2.5226  -24.2937   47.2193 C   0  0  0  1  0  0
   -1.9433  -22.4774   48.7452 C   0  0  0  1  0  0
   -6.4625  -24.0195   49.8573 C   0  0  0  1  0  0
   -5.0452  -23.4070   51.7652 C   0  0  0  1  0  0
   -1.5272  -23.8142   46.3386 C   0  0  0  1  0  0
   -3.2822  -25.5220   46.7657 C   0  0  0  1  0  0
   -0.9545  -22.0314   47.8607 C   0  0  0  1  0  0
   -5.9921  -24.4111   51.2095 N   0  0  0  1  0  0
   -0.7470  -22.6989   46.6539 C   0  0  0  1  0  0
   -4.3573  -25.1601   45.7200 C   0  0  0  1  0  0
   -2.3800  -26.6391   46.1923 C   0  0  0  1  0  0
   -6.2810  -25.6457   51.7982 C   0  0  0  1  0  0
   -7.4392  -26.3815   51.4491 C   0  0  0  1  0  0
   -5.3847  -26.2221   52.7304 C   0  0  0  1  0  0
   -7.6220  -27.6959   51.9168 C   0  0  0  1  0  0
   -5.5646  -27.5313   53.1919 C   0  0  0  1  0  0
   -6.6630  -28.2880   52.7579 C   0  0  0  1  0  0
   -6.7851  -29.7297   53.1914 C   0  0  0  1  0  0
   -7.2032  -29.8944   54.6456 C   0  0  0  1  0  0
   -7.1589  -30.8020   52.1781 C   0  0  0  1  0  0
   -5.7351  -30.6969   52.6611 C   0  0  0  1  0  0
   -6.3694  -29.7176   55.5042 O   0  0  0  1  0  0
   -8.4572  -30.2277   54.9540 O   0  0  0  1  0  0
   -2.8024  -29.7245   52.9085 H   0  0
   -1.5871  -24.8176   50.7899 H   0  0
   -1.1551  -25.0370   53.1643 H   0  0
   -0.9225  -26.5403   55.1254 H   0  0
   -1.2459  -29.9933   55.0123 H   0  0
   -2.8300  -29.4423   55.5269 H   0  0
   -1.3565  -28.6524   56.2266 H   0  0
   -5.3636  -23.1727   48.1978 H   0  0
   -5.3647  -24.9162   48.2237 H   0  0
   -3.0097  -22.9330   51.2017 H   0  0
   -4.2160  -22.0350   50.3110 H   0  0
   -2.0934  -21.9411   49.6822 H   0  0
   -7.2262  -24.7216   49.5227 H   0  0
   -6.8881  -23.0169   49.8986 H   0  0
   -4.5505  -23.8251   52.6419 H   0  0
   -5.5984  -22.5155   52.0606 H   0  0
   -1.3641  -24.3267   45.3905 H   0  0
   -3.7508  -25.9122   47.6692 H   0  0
   -0.3470  -21.1629   48.1149 H   0  0
    0.0195  -22.3525   45.9606 H   0  0
   -3.8697  -24.6961   44.8627 H   0  0
   -5.0510  -24.4461   46.1638 H   0  0
   -4.8940  -26.0548   45.4046 H   0  0
   -1.6659  -26.9158   46.9679 H   0  0
   -1.8291  -26.2179   45.3514 H   0  0
   -2.9662  -27.5028   45.8786 H   0  0
   -8.1967  -25.9252   50.8118 H   0  0
   -4.5406  -25.6366   53.0948 H   0  0
   -8.5100  -28.2572   51.6262 H   0  0
   -4.8488  -27.9641   53.8908 H   0  0
   -7.2771  -30.3837   51.1785 H   0  0
   -7.6845  -31.6318   52.6506 H   0  0
   -5.4993  -31.4707   53.3917 H   0  0
   -5.0923  -30.2211   51.9205 H   0  0
   -8.6278  -31.1202   54.4279 H   0  0
  1  2  1  0
  2  3  1  0
  2  4  1  0
  2  5  1  0
  5  6  1  0
  6  7  2  0
  6  8  1  0
  7  9  1  0
  7 10  1  0
  8 11  2  0
  9 12  1  0
 10 13  2  0
 11 13  1  0
 11 14  1  0
 12 15  2  0
 12 16  1  0
 16 17  1  0
 16 18  1  0
 16 19  1  0
 17 20  2  0
 17 21  1  0
 18 22  1  0
 19 23  1  0
 20 24  1  0
 20 25  1  0
 21 26  2  0
 22 27  1  0
 23 27  1  0
 24 28  2  0
 25 29  1  0
 25 30  1  0
 26 28  1  0
 27 31  1  0
 31 32  2  0
 31 33  1  0
 32 34  1  0
 33 35  2  0
 34 36  2  0
 35 36  1  0
 36 37  1  0
 37 38  1  0
 37 39  1  0
 37 40  1  0
 38 41  2  0
 38 42  1  0
 39 40  1  0
  8 43  1  0
  9 44  1  0
 10 45  1  0
 13 46  1  0
 14 47  1  0
 14 48  1  0
 14 49  1  0
 18 50  1  0
 18 51  1  0
 19 52  1  0
 19 53  1  0
 21 54  1  0
 22 55  1  0
 22 56  1  0
 23 57  1  0
 23 58  1  0
 24 59  1  0
 25 60  1  0
 26 61  1  0
 28 62  1  0
 29 63  1  0
 29 64  1  0
 29 65  1  0
 30 66  1  0
 30 67  1  0
 30 68  1  0
 32 69  1  0
 33 70  1  0
 34 71  1  0
 35 72  1  0
 39 73  1  0
 39 74  1  0
 40 75  1  0
 40 76  1  0
 42 77  1  0
M  END
> <Name>
9

> <AbsoluteEnergy>
83.7486

> <Clean Energy>
127.708

> <Column 1>
9

> <ConfNumber>
124

> <Filter_Pass>
Failed

> <IC50_nM>
54.94

> <LogP>
7.31

> <MOL_NUMBER>
6

> <QSAR_Score_pIC50>
7.26

> <RelativeEnergy>
18.0655

> <SMILES>
Cc1ccc(NC(=O)C2(c3ccccc3C(C)C)CCN(c3ccc(C4(C(=O)O)CC4)cc3)CC2)c(OC(F)(F)F)c1

> <Toxicity_Alerts>
DILI, Basic N (hERG Warning)

> <Type>
Analog

> <POSE_NUMBER>
6

> <LibDockScore>
120.714

> <HotSpots>
-1.93,-29.12,49.19,A,34,4
-0.93,-23.32,46.98,A,25,24
-6.53,-30.72,51.78,A,56,40

$$$$
9
  SciTegic05082609073D

 77 81  0  0  0  0            999 V2000
   -8.3916  -32.1072   51.2867 F   0  0  0  1  0  0
   -7.3133  -31.2735   51.4768 C   0  0  0  1  0  0
   -6.6464  -31.1209   50.2867 F   0  0  0  1  0  0
   -6.4429  -31.8162   52.3923 F   0  0  0  1  0  0
   -7.7366  -29.9729   51.9019 O   0  0  0  1  0  0
   -8.3224  -29.6977   53.0687 C   0  0  0  1  0  0
   -8.1426  -28.3928   53.6037 C   0  0  0  1  0  0
   -9.1143  -30.6287   53.7768 C   0  0  0  1  0  0
   -7.3056  -27.4810   52.9690 N   0  0  0  1  0  0
   -8.8267  -28.0186   54.7773 C   0  0  0  1  0  0
   -9.7690  -30.2583   54.9662 C   0  0  0  1  0  0
   -5.9588  -27.7297   52.7368 C   0  0  0  1  0  0
   -9.6327  -28.9467   55.4551 C   0  0  0  1  0  0
  -10.6102  -31.2422   55.7121 C   0  0  0  1  0  0
   -5.5144  -28.8422   52.9414 O   0  0  0  1  0  0
   -5.0097  -26.6448   52.2064 C   0  0  0  1  0  0
   -3.8490  -27.3396   51.4548 C   0  0  0  1  0  0
   -4.4763  -25.6378   53.2858 C   0  0  0  1  0  0
   -5.8881  -25.7015   51.2862 C   0  0  0  1  0  0
   -2.7773  -28.0134   52.1286 C   0  0  0  1  0  0
   -3.8260  -27.3464   50.0343 C   0  0  0  1  0  0
   -3.4991  -24.5781   52.7047 C   0  0  0  1  0  0
   -5.2813  -24.3018   50.9857 C   0  0  0  1  0  0
   -1.6822  -28.5050   51.3807 C   0  0  0  1  0  0
   -2.7469  -28.2603   53.6190 C   0  0  0  1  0  0
   -2.7502  -27.8758   49.3098 C   0  0  0  1  0  0
   -3.8208  -24.2821   51.2745 N   0  0  0  1  0  0
   -1.6662  -28.4387   49.9844 C   0  0  0  1  0  0
   -1.5145  -27.6203   54.2873 C   0  0  0  1  0  0
   -2.8322  -29.7634   53.9531 C   0  0  0  1  0  0
   -2.8332  -24.1461   50.2960 C   0  0  0  1  0  0
   -3.1523  -24.2730   48.9234 C   0  0  0  1  0  0
   -1.4801  -23.9295   50.6486 C   0  0  0  1  0  0
   -2.1412  -24.3568   47.9567 C   0  0  0  1  0  0
   -0.4663  -24.0086   49.6797 C   0  0  0  1  0  0
   -0.7935  -24.2940   48.3435 C   0  0  0  1  0  0
    0.2931  -24.5712   47.3301 C   0  0  0  1  0  0
    1.4331  -25.4190   47.9186 C   0  0  0  1  0  0
   -0.0969  -24.7837   45.8764 C   0  0  0  1  0  0
    0.6048  -23.5094   46.2864 C   0  0  0  1  0  0
    1.2011  -26.5498   48.2855 O   0  0  0  1  0  0
    2.6651  -24.9165   48.0259 O   0  0  0  1  0  0
   -9.2195  -31.6453   53.3978 H   0  0
   -7.7169  -26.5477   52.6456 H   0  0
   -8.7295  -27.0030   55.1609 H   0  0
  -10.1552  -28.6495   56.3644 H   0  0
   -9.9437  -32.0816   55.9103 H   0  0
  -11.3454  -31.5853   54.9841 H   0  0
  -11.0683  -30.8454   56.6181 H   0  0
   -3.9655  -26.1960   54.0704 H   0  0
   -5.3236  -25.1248   53.7408 H   0  0
   -6.8612  -25.5625   51.7573 H   0  0
   -6.0697  -26.2103   50.3395 H   0  0
   -4.6724  -26.9263   49.4909 H   0  0
   -2.4779  -24.9532   52.7724 H   0  0
   -3.5757  -23.6600   53.2872 H   0  0
   -5.4428  -24.0572   49.9359 H   0  0
   -5.7788  -23.5528   51.6018 H   0  0
   -0.8330  -28.9447   51.9039 H   0  0
   -3.6327  -27.7760   54.0300 H   0  0
   -2.7599  -27.8480   48.2202 H   0  0
   -0.8128  -28.8241   49.4265 H   0  0
   -1.5382  -26.5476   54.0955 H   0  0
   -0.6188  -28.0401   53.8295 H   0  0
   -1.5159  -27.8124   55.3602 H   0  0
   -1.9900  -30.2703   53.4822 H   0  0
   -3.7592  -30.1577   53.5369 H   0  0
   -2.8086  -29.9173   55.0319 H   0  0
   -4.1970  -24.3060   48.6142 H   0  0
   -1.2220  -23.6990   51.6822 H   0  0
   -2.4014  -24.4708   46.9044 H   0  0
    0.5737  -23.8487   49.9643 H   0  0
   -1.1636  -24.6226   45.7203 H   0  0
    0.5828  -25.4740   45.3769 H   0  0
    1.6577  -23.5220   46.0048 H   0  0
   -0.0889  -22.6710   46.3498 H   0  0
    2.5407  -24.0395   48.5897 H   0  0
  1  2  1  0
  2  3  1  0
  2  4  1  0
  2  5  1  0
  5  6  1  0
  6  7  2  0
  6  8  1  0
  7  9  1  0
  7 10  1  0
  8 11  2  0
  9 12  1  0
 10 13  2  0
 11 13  1  0
 11 14  1  0
 12 15  2  0
 12 16  1  0
 16 17  1  0
 16 18  1  0
 16 19  1  0
 17 20  2  0
 17 21  1  0
 18 22  1  0
 19 23  1  0
 20 24  1  0
 20 25  1  0
 21 26  2  0
 22 27  1  0
 23 27  1  0
 24 28  2  0
 25 29  1  0
 25 30  1  0
 26 28  1  0
 27 31  1  0
 31 32  2  0
 31 33  1  0
 32 34  1  0
 33 35  2  0
 34 36  2  0
 35 36  1  0
 36 37  1  0
 37 38  1  0
 37 39  1  0
 37 40  1  0
 38 41  2  0
 38 42  1  0
 39 40  1  0
  8 43  1  0
  9 44  1  0
 10 45  1  0
 13 46  1  0
 14 47  1  0
 14 48  1  0
 14 49  1  0
 18 50  1  0
 18 51  1  0
 19 52  1  0
 19 53  1  0
 21 54  1  0
 22 55  1  0
 22 56  1  0
 23 57  1  0
 23 58  1  0
 24 59  1  0
 25 60  1  0
 26 61  1  0
 28 62  1  0
 29 63  1  0
 29 64  1  0
 29 65  1  0
 30 66  1  0
 30 67  1  0
 30 68  1  0
 32 69  1  0
 33 70  1  0
 34 71  1  0
 35 72  1  0
 39 73  1  0
 39 74  1  0
 40 75  1  0
 40 76  1  0
 42 77  1  0
M  END
> <Name>
9

> <AbsoluteEnergy>
83.2949

> <Clean Energy>
127.708

> <Column 1>
9

> <ConfNumber>
115

> <Filter_Pass>
Failed

> <IC50_nM>
54.94

> <LogP>
7.31

> <MOL_NUMBER>
6

> <QSAR_Score_pIC50>
7.26

> <RelativeEnergy>
17.6118

> <SMILES>
Cc1ccc(NC(=O)C2(c3ccccc3C(C)C)CCN(c3ccc(C4(C(=O)O)CC4)cc3)CC2)c(OC(F)(F)F)c1

> <Toxicity_Alerts>
DILI, Basic N (hERG Warning)

> <Type>
Analog

> <POSE_NUMBER>
7

> <LibDockScore>
119.6769

> <HotSpots>
-11.53,-32.52,54.78,A,71,14
-6.33,-26.32,51.98,A,57,19
1.67,-26.92,47.78,P,27,42

$$$$
9
  SciTegic05082609073D

 77 81  0  0  0  0            999 V2000
   -4.3171  -22.9027   45.8988 F   0  0  0  1  0  0
   -4.3449  -24.1431   46.5008 C   0  0  0  1  0  0
   -3.6680  -25.0262   45.7009 F   0  0  0  1  0  0
   -5.6466  -24.5769   46.6213 F   0  0  0  1  0  0
   -3.6963  -24.1077   47.7858 O   0  0  0  1  0  0
   -4.1336  -23.3955   48.8280 C   0  0  0  1  0  0
   -3.4450  -23.5096   50.0637 C   0  0  0  1  0  0
   -5.2480  -22.5246   48.7514 C   0  0  0  1  0  0
   -2.3694  -24.3709   50.1991 N   0  0  0  1  0  0
   -3.8654  -22.7518   51.1781 C   0  0  0  1  0  0
   -5.6753  -21.7882   49.8722 C   0  0  0  1  0  0
   -1.4646  -24.3372   51.2508 C   0  0  0  1  0  0
   -4.9788  -21.9071   51.0852 C   0  0  0  1  0  0
   -6.8599  -20.8833   49.7840 C   0  0  0  1  0  0
   -1.3754  -23.3408   51.9399 O   0  0  0  1  0  0
   -0.5494  -25.5302   51.5780 C   0  0  0  1  0  0
    0.9095  -25.1287   51.3112 C   0  0  0  1  0  0
   -0.8622  -25.8006   53.0824 C   0  0  0  1  0  0
   -0.8572  -26.8810   50.8271 C   0  0  0  1  0  0
    1.3608  -24.7490   50.0040 C   0  0  0  1  0  0
    1.8593  -25.1196   52.3698 C   0  0  0  1  0  0
   -2.3407  -26.1723   53.3267 C   0  0  0  1  0  0
   -1.7588  -27.9069   51.5626 C   0  0  0  1  0  0
    2.7077  -24.3639   49.8168 C   0  0  0  1  0  0
    0.4709  -24.7303   48.7800 C   0  0  0  1  0  0
    3.1929  -24.7430   52.1566 C   0  0  0  1  0  0
   -2.7911  -27.2904   52.4486 N   0  0  0  1  0  0
    3.6172  -24.3633   50.8808 C   0  0  0  1  0  0
    0.9740  -25.6752   47.6715 C   0  0  0  1  0  0
    0.2494  -23.3018   48.2509 C   0  0  0  1  0  0
   -4.1038  -27.7617   52.4899 C   0  0  0  1  0  0
   -5.1938  -26.8854   52.7034 C   0  0  0  1  0  0
   -4.3735  -29.1411   52.3266 C   0  0  0  1  0  0
   -6.5079  -27.3813   52.7870 C   0  0  0  1  0  0
   -5.6868  -29.6351   52.4064 C   0  0  0  1  0  0
   -6.7617  -28.7602   52.6437 C   0  0  0  1  0  0
   -8.1784  -29.3004   52.7426 C   0  0  0  1  0  0
   -8.6971  -29.9642   51.4632 C   0  0  0  1  0  0
   -8.6341  -29.8673   54.0819 C   0  0  0  1  0  0
   -9.1890  -28.5502   53.5984 C   0  0  0  1  0  0
   -9.3616  -29.3130   50.6869 O   0  0  0  1  0  0
   -8.4074  -31.2524   51.2373 O   0  0  0  1  0  0
   -5.7841  -22.4229   47.8078 H   0  0
   -2.2261  -25.1128   49.4415 H   0  0
   -3.3191  -22.8246   52.1185 H   0  0
   -5.3054  -21.3405   51.9572 H   0  0
   -7.6716  -21.5236   49.4387 H   0  0
   -6.6253  -20.1999   48.9679 H   0  0
   -7.0987  -20.3643   50.7123 H   0  0
   -0.6206  -24.9098   53.6622 H   0  0
   -0.2292  -26.6143   53.4363 H   0  0
    0.0894  -27.3667   50.5901 H   0  0
   -1.3207  -26.6437   49.8695 H   0  0
    1.5428  -25.4124   53.3709 H   0  0
   -2.9653  -25.2990   53.1385 H   0  0
   -2.4677  -26.4654   54.3688 H   0  0
   -2.2609  -28.5289   50.8215 H   0  0
   -1.1291  -28.5625   52.1640 H   0  0
    3.0446  -24.0617   48.8252 H   0  0
   -0.4990  -25.1110   49.1001 H   0  0
    3.8992  -24.7465   52.9868 H   0  0
    4.6531  -24.0676   50.7145 H   0  0
    1.0145  -26.6857   48.0782 H   0  0
    1.9826  -25.3682   47.3946 H   0  0
    0.3146  -25.6408   46.8042 H   0  0
    1.2200  -22.8721   48.0030 H   0  0
   -0.2070  -22.7082   49.0430 H   0  0
   -0.3935  -23.3142   47.3708 H   0  0
   -5.0137  -25.8151   52.8042 H   0  0
   -3.5509  -29.8304   52.1362 H   0  0
   -7.3354  -26.6942   52.9638 H   0  0
   -5.8731  -30.7020   52.2837 H   0  0
   -7.8773  -29.7264   54.8536 H   0  0
   -9.3494  -30.6789   53.9488 H   0  0
  -10.2013  -28.6585   53.2091 H   0  0
   -8.7287  -27.7063   54.1123 H   0  0
   -8.7679  -31.7657   52.0794 H   0  0
  1  2  1  0
  2  3  1  0
  2  4  1  0
  2  5  1  0
  5  6  1  0
  6  7  2  0
  6  8  1  0
  7  9  1  0
  7 10  1  0
  8 11  2  0
  9 12  1  0
 10 13  2  0
 11 13  1  0
 11 14  1  0
 12 15  2  0
 12 16  1  0
 16 17  1  0
 16 18  1  0
 16 19  1  0
 17 20  2  0
 17 21  1  0
 18 22  1  0
 19 23  1  0
 20 24  1  0
 20 25  1  0
 21 26  2  0
 22 27  1  0
 23 27  1  0
 24 28  2  0
 25 29  1  0
 25 30  1  0
 26 28  1  0
 27 31  1  0
 31 32  2  0
 31 33  1  0
 32 34  1  0
 33 35  2  0
 34 36  2  0
 35 36  1  0
 36 37  1  0
 37 38  1  0
 37 39  1  0
 37 40  1  0
 38 41  2  0
 38 42  1  0
 39 40  1  0
  8 43  1  0
  9 44  1  0
 10 45  1  0
 13 46  1  0
 14 47  1  0
 14 48  1  0
 14 49  1  0
 18 50  1  0
 18 51  1  0
 19 52  1  0
 19 53  1  0
 21 54  1  0
 22 55  1  0
 22 56  1  0
 23 57  1  0
 23 58  1  0
 24 59  1  0
 25 60  1  0
 26 61  1  0
 28 62  1  0
 29 63  1  0
 29 64  1  0
 29 65  1  0
 30 66  1  0
 30 67  1  0
 30 68  1  0
 32 69  1  0
 33 70  1  0
 34 71  1  0
 35 72  1  0
 39 73  1  0
 39 74  1  0
 40 75  1  0
 40 76  1  0
 42 77  1  0
M  END
> <Name>
9

> <AbsoluteEnergy>
73.1114

> <Clean Energy>
127.708

> <Column 1>
9

> <ConfNumber>
35

> <Filter_Pass>
Failed

> <IC50_nM>
54.94

> <LogP>
7.31

> <MOL_NUMBER>
6

> <QSAR_Score_pIC50>
7.26

> <RelativeEnergy>
7.4282

> <SMILES>
Cc1ccc(NC(=O)C2(c3ccccc3C(C)C)CCN(c3ccc(C4(C(=O)O)CC4)cc3)CC2)c(OC(F)(F)F)c1

> <Toxicity_Alerts>
DILI, Basic N (hERG Warning)

> <Type>
Analog

> <POSE_NUMBER>
8

> <LibDockScore>
117.4062

> <HotSpots>
-4.33,-26.12,45.19,A,10,3
1.67,-24.32,50.98,A,50,21
-0.93,-23.32,46.98,A,25,30

$$$$
9
  SciTegic05082609073D

 77 81  0  0  0  0            999 V2000
   -8.4715  -32.1226   51.2864 F   0  0  0  1  0  0
   -7.3908  -31.2922   51.4773 C   0  0  0  1  0  0
   -6.7385  -31.1196   50.2819 F   0  0  0  1  0  0
   -6.5093  -31.8503   52.3727 F   0  0  0  1  0  0
   -7.8086  -29.9990   51.9294 O   0  0  0  1  0  0
   -8.4205  -29.7499   53.0887 C   0  0  0  1  0  0
   -8.2756  -28.4488   53.6430 C   0  0  0  1  0  0
   -9.2069  -30.7048   53.7705 C   0  0  0  1  0  0
   -7.4450  -27.5133   53.0352 N   0  0  0  1  0  0
   -8.9878  -28.1028   54.8085 C   0  0  0  1  0  0
   -9.8900  -30.3622   54.9523 C   0  0  0  1  0  0
   -6.0961  -27.7450   52.7977 C   0  0  0  1  0  0
   -9.7878  -29.0547   55.4599 C   0  0  0  1  0  0
  -10.7254  -31.3715   55.6704 C   0  0  0  1  0  0
   -5.6303  -28.8432   53.0298 O   0  0  0  1  0  0
   -5.1710  -26.6593   52.2280 C   0  0  0  1  0  0
   -3.9841  -27.3550   51.5194 C   0  0  0  1  0  0
   -4.6763  -25.5909   53.2660 C   0  0  0  1  0  0
   -6.0645  -25.7824   51.2582 C   0  0  0  1  0  0
   -2.9161  -27.9928   52.2329 C   0  0  0  1  0  0
   -3.9314  -27.3995   50.1003 C   0  0  0  1  0  0
   -3.7219  -24.5319   52.6471 C   0  0  0  1  0  0
   -5.4925  -24.3815   50.9007 C   0  0  0  1  0  0
   -1.7981  -28.4864   51.5211 C   0  0  0  1  0  0
   -2.9128  -28.1991   53.7298 C   0  0  0  1  0  0
   -2.8325  -27.9305   49.4125 C   0  0  0  1  0  0
   -4.0362  -24.3090   51.2021 N   0  0  0  1  0  0
   -1.7541  -28.4574   50.1241 C   0  0  0  1  0  0
   -1.6886  -27.5473   54.4018 C   0  0  0  1  0  0
   -3.0120  -29.6921   54.1031 C   0  0  0  1  0  0
   -3.0423  -24.1899   50.2278 C   0  0  0  1  0  0
   -3.3490  -24.3586   48.8569 C   0  0  0  1  0  0
   -1.6944  -23.9489   50.5846 C   0  0  0  1  0  0
   -2.3294  -24.4586   47.9007 C   0  0  0  1  0  0
   -0.6721  -24.0443   49.6261 C   0  0  0  1  0  0
   -0.9856  -24.3706   48.2960 C   0  0  0  1  0  0
    0.1119  -24.6644   47.2992 C   0  0  0  1  0  0
    0.9798  -25.8596   47.7269 C   0  0  0  1  0  0
   -0.1678  -24.4600   45.8192 C   0  0  0  1  0  0
    0.7460  -23.5027   46.5492 C   0  0  0  1  0  0
    0.5681  -26.6148   48.5799 O   0  0  0  1  0  0
    2.1739  -26.0645   47.1669 O   0  0  0  1  0  0
   -9.2856  -31.7182   53.3770 H   0  0
   -7.8632  -26.5744   52.7377 H   0  0
   -8.9172  -27.0905   55.2065 H   0  0
  -10.3322  -28.7792   56.3631 H   0  0
  -10.0465  -32.2005   55.8702 H   0  0
  -11.4406  -31.7192   54.9249 H   0  0
  -11.2073  -30.9951   56.5727 H   0  0
   -4.1590  -26.0993   54.0797 H   0  0
   -5.5418  -25.0814   53.6895 H   0  0
   -7.0459  -25.6492   51.7134 H   0  0
   -6.2224  -26.3378   50.3337 H   0  0
   -4.7728  -27.0080   49.5285 H   0  0
   -2.6918  -24.8755   52.7412 H   0  0
   -3.8294  -23.5911   53.1870 H   0  0
   -5.6493  -24.1886   49.8394 H   0  0
   -6.0165  -23.6195   51.4777 H   0  0
   -0.9532  -28.8980   52.0732 H   0  0
   -3.8029  -27.6993   54.1120 H   0  0
   -2.8199  -27.9320   48.3226 H   0  0
   -0.8833  -28.8437   49.5944 H   0  0
   -1.7030  -26.4801   54.1805 H   0  0
   -0.7875  -27.9840   53.9713 H   0  0
   -1.7096  -27.7100   55.4794 H   0  0
   -2.1645  -30.2158   53.6609 H   0  0
   -3.9338  -30.0931   53.6817 H   0  0
   -3.0079  -29.8166   55.1860 H   0  0
   -4.3908  -24.4114   48.5407 H   0  0
   -1.4470  -23.6867   51.6133 H   0  0
   -2.5800  -24.6047   46.8500 H   0  0
    0.3638  -23.8653   49.9140 H   0  0
   -1.1543  -24.0268   45.6541 H   0  0
    0.3947  -25.1633   45.2051 H   0  0
    1.7945  -23.6968   46.3233 H   0  0
    0.2450  -22.5610   46.7738 H   0  0
    2.6941  -25.1665   47.3265 H   0  0
  1  2  1  0
  2  3  1  0
  2  4  1  0
  2  5  1  0
  5  6  1  0
  6  7  2  0
  6  8  1  0
  7  9  1  0
  7 10  1  0
  8 11  2  0
  9 12  1  0
 10 13  2  0
 11 13  1  0
 11 14  1  0
 12 15  2  0
 12 16  1  0
 16 17  1  0
 16 18  1  0
 16 19  1  0
 17 20  2  0
 17 21  1  0
 18 22  1  0
 19 23  1  0
 20 24  1  0
 20 25  1  0
 21 26  2  0
 22 27  1  0
 23 27  1  0
 24 28  2  0
 25 29  1  0
 25 30  1  0
 26 28  1  0
 27 31  1  0
 31 32  2  0
 31 33  1  0
 32 34  1  0
 33 35  2  0
 34 36  2  0
 35 36  1  0
 36 37  1  0
 37 38  1  0
 37 39  1  0
 37 40  1  0
 38 41  2  0
 38 42  1  0
 39 40  1  0
  8 43  1  0
  9 44  1  0
 10 45  1  0
 13 46  1  0
 14 47  1  0
 14 48  1  0
 14 49  1  0
 18 50  1  0
 18 51  1  0
 19 52  1  0
 19 53  1  0
 21 54  1  0
 22 55  1  0
 22 56  1  0
 23 57  1  0
 23 58  1  0
 24 59  1  0
 25 60  1  0
 26 61  1  0
 28 62  1  0
 29 63  1  0
 29 64  1  0
 29 65  1  0
 30 66  1  0
 30 67  1  0
 30 68  1  0
 32 69  1  0
 33 70  1  0
 34 71  1  0
 35 72  1  0
 39 73  1  0
 39 74  1  0
 40 75  1  0
 40 76  1  0
 42 77  1  0
M  END
> <Name>
9

> <AbsoluteEnergy>
83.2949

> <Clean Energy>
127.708

> <Column 1>
9

> <ConfNumber>
115

> <Filter_Pass>
Failed

> <IC50_nM>
54.94

> <LogP>
7.31

> <MOL_NUMBER>
6

> <QSAR_Score_pIC50>
7.26

> <RelativeEnergy>
17.6118

> <SMILES>
Cc1ccc(NC(=O)C2(c3ccccc3C(C)C)CCN(c3ccc(C4(C(=O)O)CC4)cc3)CC2)c(OC(F)(F)F)c1

> <Toxicity_Alerts>
DILI, Basic N (hERG Warning)

> <Type>
Analog

> <POSE_NUMBER>
9

> <LibDockScore>
115.2567

> <HotSpots>
-8.53,-31.32,51.19,A,51,1
-5.93,-24.72,51.19,A,53,23
0.27,-22.52,46.78,A,23,40

$$$$
9
  SciTegic05082609073D

 77 81  0  0  0  0            999 V2000
   -3.5414  -22.8932   46.2922 F   0  0  0  1  0  0
   -4.0050  -24.1511   46.6158 C   0  0  0  1  0  0
   -5.3408  -24.2551   46.2909 F   0  0  0  1  0  0
   -3.2957  -25.0662   45.8782 F   0  0  0  1  0  0
   -3.8065  -24.4395   48.0121 O   0  0  0  1  0  0
   -4.3135  -23.7070   49.0084 C   0  0  0  1  0  0
   -3.8409  -23.9338   50.3286 C   0  0  0  1  0  0
   -5.2989  -22.7107   48.8038 C   0  0  0  1  0  0
   -2.9300  -24.9440   50.5934 N   0  0  0  1  0  0
   -4.3306  -23.1461   51.3935 C   0  0  0  1  0  0
   -5.7882  -21.9389   49.8715 C   0  0  0  1  0  0
   -1.9334  -24.8965   51.5581 C   0  0  0  1  0  0
   -5.2974  -22.1603   51.1680 C   0  0  0  1  0  0
   -6.8241  -20.8922   49.6197 C   0  0  0  1  0  0
   -1.8433  -23.9383   52.2950 O   0  0  0  1  0  0
   -0.9284  -26.0457   51.7414 C   0  0  0  1  0  0
    0.5131  -25.5254   51.6390 C   0  0  0  1  0  0
   -1.1021  -27.2996   50.8262 C   0  0  0  1  0  0
   -1.2776  -26.6027   53.1534 C   0  0  0  1  0  0
    1.0499  -24.9729   50.4304 C   0  0  0  1  0  0
    1.3660  -25.5841   52.7755 C   0  0  0  1  0  0
   -2.4017  -28.1376   50.9923 C   0  0  0  1  0  0
   -2.7532  -27.0010   53.3037 C   0  0  0  1  0  0
    2.3713  -24.4689   50.4230 C   0  0  0  1  0  0
    0.2790  -24.8887   49.1318 C   0  0  0  1  0  0
    2.6785  -25.0950   52.7391 C   0  0  0  1  0  0
   -3.2852  -27.7652   52.1395 N   0  0  0  1  0  0
    3.1814  -24.5319   51.5633 C   0  0  0  1  0  0
    0.9782  -25.6197   47.9693 C   0  0  0  1  0  0
   -0.0566  -23.4331   48.7575 C   0  0  0  1  0  0
   -4.6217  -28.1303   52.1325 C   0  0  0  1  0  0
   -5.6290  -27.1601   52.3218 C   0  0  0  1  0  0
   -4.9944  -29.4792   51.9476 C   0  0  0  1  0  0
   -6.9775  -27.5412   52.3957 C   0  0  0  1  0  0
   -6.3439  -29.8626   52.0438 C   0  0  0  1  0  0
   -7.3376  -28.8997   52.3045 C   0  0  0  1  0  0
   -8.7793  -29.3182   52.5148 C   0  0  0  1  0  0
   -9.3118  -28.8994   53.8887 C   0  0  0  1  0  0
   -9.7403  -29.2803   51.3358 C   0  0  0  1  0  0
   -9.2780  -30.6095   51.8839 C   0  0  0  1  0  0
   -9.8700  -29.7113   54.5946 O   0  0  0  1  0  0
   -9.1456  -27.6311   54.2788 O   0  0  0  1  0  0
   -5.6852  -22.5392   47.7991 H   0  0
   -3.0009  -25.8349   50.0050 H   0  0
   -3.9511  -23.3080   52.4024 H   0  0
   -5.6701  -21.5632   52.0003 H   0  0
   -7.6505  -21.4204   49.1441 H   0  0
   -6.3865  -20.2361   48.8673 H   0  0
   -7.1341  -20.3522   50.5144 H   0  0
   -1.0364  -26.9758   49.7875 H   0  0
   -0.2493  -27.9597   50.9845 H   0  0
   -1.0389  -25.8469   53.9017 H   0  0
   -0.6551  -27.4748   53.3534 H   0  0
    0.9885  -26.0214   53.6998 H   0  0
   -2.9826  -28.0616   50.0731 H   0  0
   -2.1271  -29.1872   51.0977 H   0  0
   -3.3518  -26.0997   53.4353 H   0  0
   -2.8658  -27.6068   54.2028 H   0  0
    2.7672  -24.0223   49.5109 H   0  0
   -0.6609  -25.4122   49.3069 H   0  0
    3.3070  -25.1537   53.6277 H   0  0
    4.1994  -24.1436   51.5339 H   0  0
    1.1011  -26.6645   48.2544 H   0  0
    1.9651  -25.1760   47.8380 H   0  0
    0.3971  -25.5394   47.0506 H   0  0
    0.8761  -22.8767   48.6648 H   0  0
   -0.6489  -22.9975   49.5622 H   0  0
   -0.6112  -23.3972   47.8199 H   0  0
   -5.3578  -26.1082   52.4112 H   0  0
   -4.2324  -30.2273   51.7292 H   0  0
   -7.7496  -26.7826   52.5242 H   0  0
   -6.6217  -30.9088   51.9161 H   0  0
   -9.2263  -29.0269   50.4086 H   0  0
  -10.7554  -29.0445   51.6553 H   0  0
  -10.0473  -31.0822   52.4945 H   0  0
   -8.5173  -31.0638   51.2491 H   0  0
   -9.5933  -27.0493   53.5281 H   0  0
  1  2  1  0
  2  3  1  0
  2  4  1  0
  2  5  1  0
  5  6  1  0
  6  7  2  0
  6  8  1  0
  7  9  1  0
  7 10  1  0
  8 11  2  0
  9 12  1  0
 10 13  2  0
 11 13  1  0
 11 14  1  0
 12 15  2  0
 12 16  1  0
 16 17  1  0
 16 18  1  0
 16 19  1  0
 17 20  2  0
 17 21  1  0
 18 22  1  0
 19 23  1  0
 20 24  1  0
 20 25  1  0
 21 26  2  0
 22 27  1  0
 23 27  1  0
 24 28  2  0
 25 29  1  0
 25 30  1  0
 26 28  1  0
 27 31  1  0
 31 32  2  0
 31 33  1  0
 32 34  1  0
 33 35  2  0
 34 36  2  0
 35 36  1  0
 36 37  1  0
 37 38  1  0
 37 39  1  0
 37 40  1  0
 38 41  2  0
 38 42  1  0
 39 40  1  0
  8 43  1  0
  9 44  1  0
 10 45  1  0
 13 46  1  0
 14 47  1  0
 14 48  1  0
 14 49  1  0
 18 50  1  0
 18 51  1  0
 19 52  1  0
 19 53  1  0
 21 54  1  0
 22 55  1  0
 22 56  1  0
 23 57  1  0
 23 58  1  0
 24 59  1  0
 25 60  1  0
 26 61  1  0
 28 62  1  0
 29 63  1  0
 29 64  1  0
 29 65  1  0
 30 66  1  0
 30 67  1  0
 30 68  1  0
 32 69  1  0
 33 70  1  0
 34 71  1  0
 35 72  1  0
 39 73  1  0
 39 74  1  0
 40 75  1  0
 40 76  1  0
 42 77  1  0
M  END
> <Name>
9

> <AbsoluteEnergy>
76.0132

> <Clean Energy>
127.708

> <Column 1>
9

> <ConfNumber>
60

> <Filter_Pass>
Failed

> <IC50_nM>
54.94

> <LogP>
7.31

> <MOL_NUMBER>
6

> <QSAR_Score_pIC50>
7.26

> <RelativeEnergy>
10.3301

> <SMILES>
Cc1ccc(NC(=O)C2(c3ccccc3C(C)C)CCN(c3ccc(C4(C(=O)O)CC4)cc3)CC2)c(OC(F)(F)F)c1

> <Toxicity_Alerts>
DILI, Basic N (hERG Warning)

> <Type>
Analog

> <POSE_NUMBER>
10

> <LibDockScore>
113.7577

> <HotSpots>
-2.93,-26.32,45.98,A,15,4
-6.53,-23.32,50.38,A,45,13
1.67,-24.32,50.98,A,50,24

$$$$
10
  SciTegic05082609073D

 71 75  0  0  0  0            999 V2000
   -2.2616  -24.0620   48.6154 F   0  0  0  1  0  0
   -3.4503  -23.6827   48.0406 C   0  0  0  1  0  0
   -3.1784  -22.5595   47.2820 F   0  0  0  1  0  0
   -3.8829  -24.6313   47.1591 F   0  0  0  1  0  0
   -4.4985  -23.4202   49.1114 C   0  0  0  1  0  0
   -4.7813  -24.2492   50.2663 C   0  0  0  1  0  0
   -5.2668  -22.2378   48.9313 C   0  0  0  1  0  0
   -5.9056  -23.8918   51.0590 C   0  0  0  1  0  0
   -4.0403  -25.4983   50.8003 C   0  0  0  1  0  0
   -6.3314  -21.9015   49.7712 C   0  0  0  1  0  0
   -6.6648  -22.7431   50.8286 C   0  0  0  1  0  0
   -4.9898  -26.2408   51.7630 C   0  0  0  1  0  0
   -3.4555  -26.5473   49.7803 C   0  0  0  1  0  0
   -2.7479  -25.0143   51.5741 C   0  0  0  1  0  0
   -5.1085  -25.8492   52.9047 O   0  0  0  1  0  0
   -5.6861  -27.3658   51.3493 N   0  0  0  1  0  0
   -2.3397  -27.4833   50.3207 C   0  0  0  1  0  0
   -1.9741  -26.1143   52.3515 C   0  0  0  1  0  0
   -6.7392  -27.9270   52.0605 C   0  0  0  1  0  0
   -2.2917  -27.4538   51.8004 N   0  0  0  1  0  0
   -6.9619  -29.3257   52.0042 C   0  0  0  1  0  0
   -7.5858  -27.1160   52.8491 C   0  0  0  1  0  0
   -2.6376  -28.5296   52.6092 C   0  0  0  1  0  0
   -6.1736  -30.0752   51.2339 O   0  0  0  1  0  0
   -7.9992  -29.8851   52.7856 C   0  0  0  1  0  0
   -8.6257  -27.6856   53.5996 C   0  0  0  1  0  0
   -2.3224  -28.5496   53.9875 C   0  0  0  1  0  0
   -3.3564  -29.6130   52.0613 C   0  0  0  1  0  0
   -6.3500  -31.4892   51.0927 C   0  0  0  1  0  0
   -8.8287  -29.0759   53.5820 C   0  0  0  1  0  0
   -2.8040  -29.5824   54.8126 C   0  0  0  1  0  0
   -3.8281  -30.6467   52.8821 C   0  0  0  1  0  0
   -9.9175  -29.6793   54.4071 C   0  0  0  1  0  0
   -3.5942  -30.6115   54.2680 C   0  0  0  1  0  0
   -4.2014  -31.6573   55.1703 C   0  0  0  1  0  0
   -3.8355  -33.0839   54.7897 C   0  0  0  1  0  0
   -4.3392  -31.3208   56.6476 C   0  0  0  1  0  0
   -5.5729  -31.4057   55.7853 C   0  0  0  1  0  0
   -3.0221  -33.6829   55.4541 O   0  0  0  1  0  0
   -4.4185  -33.6528   53.7357 O   0  0  0  1  0  0
   -5.0162  -21.5691   48.1078 H   0  0
   -6.1881  -24.5447   51.8849 H   0  0
   -6.8973  -20.9859   49.5995 H   0  0
   -7.5124  -22.5070   51.4720 H   0  0
   -3.0648  -26.0099   48.9162 H   0  0
   -4.2745  -27.1652   49.4122 H   0  0
   -3.0353  -24.2324   52.2770 H   0  0
   -2.0670  -24.5534   50.8585 H   0  0
   -5.3957  -27.8285   50.4293 H   0  0
   -2.5334  -28.5032   49.9886 H   0  0
   -1.3763  -27.1624   49.9245 H   0  0
   -2.2566  -26.0814   53.4037 H   0  0
   -0.9028  -25.9332   52.2640 H   0  0
   -7.4296  -26.0375   52.8747 H   0  0
   -8.1587  -30.9633   52.7703 H   0  0
   -9.2773  -27.0483   54.1974 H   0  0
   -1.7028  -27.7603   54.4132 H   0  0
   -3.5469  -29.6465   50.9886 H   0  0
   -7.3824  -31.5941   50.7592 H   0  0
   -6.3125  -31.8631   52.1159 H   0  0
   -5.6360  -31.9811   50.4321 H   0  0
   -2.5645  -29.5854   55.8760 H   0  0
   -4.3778  -31.4801   52.4447 H   0  0
   -9.4135  -30.4132   55.0360 H   0  0
  -10.5275  -30.2359   53.6956 H   0  0
  -10.4963  -28.9576   54.9835 H   0  0
   -4.0597  -30.2869   56.8501 H   0  0
   -4.2220  -32.2068   57.2716 H   0  0
   -6.1147  -32.3374   55.9478 H   0  0
   -5.9514  -30.4173   55.5249 H   0  0
   -4.2169  -33.0048   52.9345 H   0  0
  1  2  1  0
  2  3  1  0
  2  4  1  0
  2  5  1  0
  5  6  2  0
  5  7  1  0
  6  8  1  0
  6  9  1  0
  7 10  2  0
  8 11  2  0
  9 12  1  0
  9 13  1  0
  9 14  1  0
 10 11  1  0
 12 15  2  0
 12 16  1  0
 13 17  1  0
 14 18  1  0
 16 19  1  0
 17 20  1  0
 18 20  1  0
 19 21  2  0
 19 22  1  0
 20 23  1  0
 21 24  1  0
 21 25  1  0
 22 26  2  0
 23 27  2  0
 23 28  1  0
 24 29  1  0
 25 30  2  0
 26 30  1  0
 27 31  1  0
 28 32  2  0
 30 33  1  0
 31 34  2  0
 32 34  1  0
 34 35  1  0
 35 36  1  0
 35 37  1  0
 35 38  1  0
 36 39  2  0
 36 40  1  0
 37 38  1  0
  7 41  1  0
  8 42  1  0
 10 43  1  0
 11 44  1  0
 13 45  1  0
 13 46  1  0
 14 47  1  0
 14 48  1  0
 16 49  1  0
 17 50  1  0
 17 51  1  0
 18 52  1  0
 18 53  1  0
 22 54  1  0
 25 55  1  0
 26 56  1  0
 27 57  1  0
 28 58  1  0
 29 59  1  0
 29 60  1  0
 29 61  1  0
 31 62  1  0
 32 63  1  0
 33 64  1  0
 33 65  1  0
 33 66  1  0
 37 67  1  0
 37 68  1  0
 38 69  1  0
 38 70  1  0
 40 71  1  0
M  END
> <Name>
10

> <AbsoluteEnergy>
82.7016

> <Clean Energy>
144.703

> <Column 1>
10

> <ConfNumber>
100

> <Filter_Pass>
Failed

> <IC50_nM>
62.87

> <LogP>
6.32

> <MOL_NUMBER>
7

> <QSAR_Score_pIC50>
7.202

> <RelativeEnergy>
12.3319

> <SMILES>
COc1cc(C)ccc1NC(=O)C1(c2ccccc2C(F)(F)F)CCN(c2ccc(C3(C(=O)O)CC3)cc2)CC1

> <Toxicity_Alerts>
DILI, Basic N (hERG Warning)

> <Type>
Analog

> <POSE_NUMBER>
1

> <LibDockScore>
147.3389

> <HotSpots>
-4.53,-24.52,46.19,A,17,3
-4.73,-22.32,50.38,A,46,11
-3.33,-33.72,54.98,P,58,40

$$$$
10
  SciTegic05082609073D

 71 75  0  0  0  0            999 V2000
   -5.5113  -31.1444   55.1026 F   0  0  0  1  0  0
   -4.5535  -31.2271   54.1173 C   0  0  0  1  0  0
   -3.8265  -32.3744   54.3751 F   0  0  0  1  0  0
   -5.1894  -31.4410   52.9266 F   0  0  0  1  0  0
   -3.6727  -29.9781   54.1516 C   0  0  0  1  0  0
   -3.8941  -28.7376   53.4314 C   0  0  0  1  0  0
   -2.5331  -30.0803   54.9925 C   0  0  0  1  0  0
   -2.9289  -27.7038   53.6114 C   0  0  0  1  0  0
   -5.0832  -28.4538   52.4739 C   0  0  0  1  0  0
   -1.6014  -29.0446   55.1151 C   0  0  0  1  0  0
   -1.7918  -27.8583   54.4117 C   0  0  0  1  0  0
   -6.4391  -28.8435   53.1336 C   0  0  0  1  0  0
   -5.2594  -26.9371   52.1111 C   0  0  0  1  0  0
   -4.7612  -29.1167   51.1017 C   0  0  0  1  0  0
   -6.5398  -28.6740   54.3294 O   0  0  0  1  0  0
   -7.5331  -29.3756   52.4346 N   0  0  0  1  0  0
   -4.4116  -26.3089   50.9537 C   0  0  0  1  0  0
   -3.4328  -28.6196   50.4519 C   0  0  0  1  0  0
   -8.6971  -29.9167   53.0173 C   0  0  0  1  0  0
   -3.2759  -27.1244   50.3980 N   0  0  0  1  0  0
   -9.9234  -30.0504   52.2941 C   0  0  0  1  0  0
   -8.6609  -30.3758   54.3588 C   0  0  0  1  0  0
   -2.1166  -26.5088   49.8568 C   0  0  0  1  0  0
   -9.9941  -29.6520   51.0230 O   0  0  0  1  0  0
  -11.0561  -30.6081   52.9488 C   0  0  0  1  0  0
   -9.7900  -30.9148   54.9896 C   0  0  0  1  0  0
   -1.7199  -25.1916   50.2323 C   0  0  0  1  0  0
   -1.2860  -27.1768   48.9135 C   0  0  0  1  0  0
  -11.2271  -29.6399   50.2841 C   0  0  0  1  0  0
  -10.9948  -31.0326   54.2853 C   0  0  0  1  0  0
   -0.5279  -24.6069   49.7506 C   0  0  0  1  0  0
   -0.0973  -26.5896   48.4315 C   0  0  0  1  0  0
  -12.2097  -31.6071   54.9419 C   0  0  0  1  0  0
    0.3024  -25.3160   48.8681 C   0  0  0  1  0  0
    1.6221  -24.7219   48.3986 C   0  0  0  1  0  0
    2.6431  -24.5194   49.5247 C   0  0  0  1  0  0
    2.1529  -25.1193   47.0276 C   0  0  0  1  0  0
    1.6142  -23.7262   47.2447 C   0  0  0  1  0  0
    3.1151  -23.4153   49.7122 O   0  0  0  1  0  0
    2.9911  -25.5745   50.2710 O   0  0  0  1  0  0
   -2.3793  -30.9970   55.5617 H   0  0
   -3.0836  -26.7519   53.1035 H   0  0
   -0.7299  -29.1656   55.7586 H   0  0
   -1.0591  -27.0545   54.4841 H   0  0
   -6.3118  -26.7683   51.8828 H   0  0
   -5.0757  -26.3533   53.0131 H   0  0
   -4.7025  -30.1965   51.2381 H   0  0
   -5.5833  -28.9199   50.4136 H   0  0
   -7.4792  -29.3702   51.3660 H   0  0
   -4.0069  -25.3585   51.3015 H   0  0
   -5.0840  -26.0614   50.1323 H   0  0
   -2.5934  -29.0372   51.0080 H   0  0
   -3.3702  -29.0121   49.4369 H   0  0
   -7.7265  -30.3073   54.9159 H   0  0
  -11.9928  -30.7081   52.4004 H   0  0
   -9.7307  -31.2421   56.0276 H   0  0
   -2.3542  -24.6201   50.9099 H   0  0
   -1.5750  -28.1648   48.5553 H   0  0
  -11.8929  -29.0256   50.8903 H   0  0
  -11.5910  -30.6646   50.3598 H   0  0
  -11.1450  -29.2915   49.2545 H   0  0
   -0.2514  -23.6007   50.0654 H   0  0
    0.5178  -27.1304   47.7122 H   0  0
  -12.5051  -32.4432   54.3081 H   0  0
  -12.9766  -30.8393   54.8391 H   0  0
  -12.0535  -31.9045   55.9788 H   0  0
    1.4418  -25.7466   46.4900 H   0  0
    3.2427  -25.1313   47.0096 H   0  0
    2.4166  -22.9950   47.3425 H   0  0
    0.6152  -23.6107   46.8244 H   0  0
    3.3458  -26.2904   49.5897 H   0  0
  1  2  1  0
  2  3  1  0
  2  4  1  0
  2  5  1  0
  5  6  2  0
  5  7  1  0
  6  8  1  0
  6  9  1  0
  7 10  2  0
  8 11  2  0
  9 12  1  0
  9 13  1  0
  9 14  1  0
 10 11  1  0
 12 15  2  0
 12 16  1  0
 13 17  1  0
 14 18  1  0
 16 19  1  0
 17 20  1  0
 18 20  1  0
 19 21  2  0
 19 22  1  0
 20 23  1  0
 21 24  1  0
 21 25  1  0
 22 26  2  0
 23 27  2  0
 23 28  1  0
 24 29  1  0
 25 30  2  0
 26 30  1  0
 27 31  1  0
 28 32  2  0
 30 33  1  0
 31 34  2  0
 32 34  1  0
 34 35  1  0
 35 36  1  0
 35 37  1  0
 35 38  1  0
 36 39  2  0
 36 40  1  0
 37 38  1  0
  7 41  1  0
  8 42  1  0
 10 43  1  0
 11 44  1  0
 13 45  1  0
 13 46  1  0
 14 47  1  0
 14 48  1  0
 16 49  1  0
 17 50  1  0
 17 51  1  0
 18 52  1  0
 18 53  1  0
 22 54  1  0
 25 55  1  0
 26 56  1  0
 27 57  1  0
 28 58  1  0
 29 59  1  0
 29 60  1  0
 29 61  1  0
 31 62  1  0
 32 63  1  0
 33 64  1  0
 33 65  1  0
 33 66  1  0
 37 67  1  0
 37 68  1  0
 38 69  1  0
 38 70  1  0
 40 71  1  0
M  END
> <Name>
10

> <AbsoluteEnergy>
84.3142

> <Clean Energy>
144.703

> <Column 1>
10

> <ConfNumber>
118

> <Filter_Pass>
Failed

> <IC50_nM>
62.87

> <LogP>
6.32

> <MOL_NUMBER>
7

> <QSAR_Score_pIC50>
7.202

> <RelativeEnergy>
13.9445

> <SMILES>
COc1cc(C)ccc1NC(=O)C1(c2ccccc2C(F)(F)F)CCN(c2ccc(C3(C(=O)O)CC3)cc2)CC1

> <Toxicity_Alerts>
DILI, Basic N (hERG Warning)

> <Type>
Analog

> <POSE_NUMBER>
2

> <LibDockScore>
139.2067

> <HotSpots>
-4.13,-31.12,56.59,A,79,1
-1.73,-29.72,55.59,A,76,7
0.27,-24.92,46.38,A,19,37

$$$$
10
  SciTegic05082609073D

 71 75  0  0  0  0            999 V2000
   -5.7810  -23.6838   50.7974 F   0  0  0  1  0  0
   -4.8136  -23.0299   50.0731 C   0  0  0  1  0  0
   -5.3153  -21.7928   49.7252 F   0  0  0  1  0  0
   -3.7390  -22.7854   50.8763 F   0  0  0  1  0  0
   -4.4906  -23.8592   48.8394 C   0  0  0  1  0  0
   -3.6012  -24.9966   48.7843 C   0  0  0  1  0  0
   -5.1470  -23.4478   47.6516 C   0  0  0  1  0  0
   -3.3963  -25.6005   47.5132 C   0  0  0  1  0  0
   -2.8500  -25.5873   49.9978 C   0  0  0  1  0  0
   -4.9257  -24.0796   46.4253 C   0  0  0  1  0  0
   -4.0427  -25.1538   46.3565 C   0  0  0  1  0  0
   -1.5295  -24.8482   50.2546 C   0  0  0  1  0  0
   -2.3836  -27.0832   49.8253 C   0  0  0  1  0  0
   -3.7464  -25.6039   51.2827 C   0  0  0  1  0  0
   -1.3753  -24.2675   51.3076 O   0  0  0  1  0  0
   -0.5236  -24.8408   49.2977 N   0  0  0  1  0  0
   -3.4962  -28.1613   49.8630 C   0  0  0  1  0  0
   -4.8913  -26.6273   51.2291 C   0  0  0  1  0  0
    0.7946  -24.4745   49.5241 C   0  0  0  1  0  0
   -4.3226  -27.9905   51.0842 N   0  0  0  1  0  0
    1.7212  -24.1788   48.4713 C   0  0  0  1  0  0
    1.2388  -24.4151   50.8654 C   0  0  0  1  0  0
   -4.4997  -28.9973   52.0321 C   0  0  0  1  0  0
    1.4729  -24.1251   47.1610 O   0  0  0  1  0  0
    3.0571  -23.8911   48.8150 C   0  0  0  1  0  0
    2.5681  -24.1044   51.1774 C   0  0  0  1  0  0
   -4.7985  -30.3250   51.6464 C   0  0  0  1  0  0
   -4.3732  -28.7099   53.4098 C   0  0  0  1  0  0
    0.2003  -24.3678   46.5540 C   0  0  0  1  0  0
    3.4888  -23.8498   50.1507 C   0  0  0  1  0  0
   -4.9467  -31.3374   52.6118 C   0  0  0  1  0  0
   -4.5230  -29.7205   54.3730 C   0  0  0  1  0  0
    4.9153  -23.5346   50.4646 C   0  0  0  1  0  0
   -4.7994  -31.0413   53.9787 C   0  0  0  1  0  0
   -4.9329  -32.1295   55.0193 C   0  0  0  1  0  0
   -6.2400  -32.0732   55.7977 C   0  0  0  1  0  0
   -3.6883  -32.5749   55.7727 C   0  0  0  1  0  0
   -4.3108  -33.4924   54.7500 C   0  0  0  1  0  0
   -6.9205  -31.0744   55.7326 O   0  0  0  1  0  0
   -6.6017  -33.1196   56.5400 O   0  0  0  1  0  0
   -5.8460  -22.6126   47.6967 H   0  0
   -2.7094  -26.4435   47.4377 H   0  0
   -5.4406  -23.7340   45.5289 H   0  0
   -3.8555  -25.6460   45.4021 H   0  0
   -1.8514  -27.1719   48.8782 H   0  0
   -1.6577  -27.3117   50.6057 H   0  0
   -4.1705  -24.6107   51.4306 H   0  0
   -3.1195  -25.8236   52.1469 H   0  0
   -0.7867  -25.1421   48.3053 H   0  0
   -3.0422  -29.1522   49.8694 H   0  0
   -4.1288  -28.0605   48.9811 H   0  0
   -5.4724  -26.5719   52.1496 H   0  0
   -5.5354  -26.4100   50.3770 H   0  0
    0.5331  -24.6150   51.6717 H   0  0
    3.7769  -23.6947   48.0204 H   0  0
    2.8873  -24.0604   52.2187 H   0  0
   -4.9152  -30.5662   50.5899 H   0  0
   -4.1565  -27.6904   53.7290 H   0  0
   -0.4546  -23.6659   47.0703 H   0  0
   -0.0636  -25.3574   46.9269 H   0  0
    0.1605  -24.2849   45.4679 H   0  0
   -5.1767  -32.3559   52.2990 H   0  0
   -4.4245  -29.4798   55.4315 H   0  0
    5.1020  -22.5702   49.9922 H   0  0
    5.4956  -24.2777   49.9177 H   0  0
    5.1435  -23.5284   51.5304 H   0  0
   -3.9263  -32.8856   56.7900 H   0  0
   -2.7923  -32.0896   55.3858 H   0  0
   -3.7468  -33.4972   53.8173 H   0  0
   -4.8822  -34.2921   55.2212 H   0  0
   -5.7987  -33.2760   57.1982 H   0  0
  1  2  1  0
  2  3  1  0
  2  4  1  0
  2  5  1  0
  5  6  2  0
  5  7  1  0
  6  8  1  0
  6  9  1  0
  7 10  2  0
  8 11  2  0
  9 12  1  0
  9 13  1  0
  9 14  1  0
 10 11  1  0
 12 15  2  0
 12 16  1  0
 13 17  1  0
 14 18  1  0
 16 19  1  0
 17 20  1  0
 18 20  1  0
 19 21  2  0
 19 22  1  0
 20 23  1  0
 21 24  1  0
 21 25  1  0
 22 26  2  0
 23 27  2  0
 23 28  1  0
 24 29  1  0
 25 30  2  0
 26 30  1  0
 27 31  1  0
 28 32  2  0
 30 33  1  0
 31 34  2  0
 32 34  1  0
 34 35  1  0
 35 36  1  0
 35 37  1  0
 35 38  1  0
 36 39  2  0
 36 40  1  0
 37 38  1  0
  7 41  1  0
  8 42  1  0
 10 43  1  0
 11 44  1  0
 13 45  1  0
 13 46  1  0
 14 47  1  0
 14 48  1  0
 16 49  1  0
 17 50  1  0
 17 51  1  0
 18 52  1  0
 18 53  1  0
 22 54  1  0
 25 55  1  0
 26 56  1  0
 27 57  1  0
 28 58  1  0
 29 59  1  0
 29 60  1  0
 29 61  1  0
 31 62  1  0
 32 63  1  0
 33 64  1  0
 33 65  1  0
 33 66  1  0
 37 67  1  0
 37 68  1  0
 38 69  1  0
 38 70  1  0
 40 71  1  0
M  END
> <Name>
10

> <AbsoluteEnergy>
76.6834

> <Clean Energy>
144.703

> <Column 1>
10

> <ConfNumber>
43

> <Filter_Pass>
Failed

> <IC50_nM>
62.87

> <LogP>
6.32

> <MOL_NUMBER>
7

> <QSAR_Score_pIC50>
7.202

> <RelativeEnergy>
6.31373

> <SMILES>
COc1cc(C)ccc1NC(=O)C1(c2ccccc2C(F)(F)F)CCN(c2ccc(C3(C(=O)O)CC3)cc2)CC1

> <Toxicity_Alerts>
DILI, Basic N (hERG Warning)

> <Type>
Analog

> <POSE_NUMBER>
3

> <LibDockScore>
137.4919

> <HotSpots>
-4.73,-22.32,50.38,A,46,1
3.07,-24.52,50.38,A,43,26
-4.33,-32.92,55.19,A,75,38

$$$$
10
  SciTegic05082609073D

 71 75  0  0  0  0            999 V2000
   -0.5785  -24.5060   47.0305 F   0  0  0  1  0  0
    0.2486  -25.3834   47.6860 C   0  0  0  1  0  0
   -0.5060  -26.4176   48.1598 F   0  0  0  1  0  0
    1.1179  -25.9161   46.7580 F   0  0  0  1  0  0
    0.9949  -24.6236   48.7756 C   0  0  0  1  0  0
    0.5026  -24.3648   50.1079 C   0  0  0  1  0  0
    2.2729  -24.1303   48.4138 C   0  0  0  1  0  0
    1.3586  -23.6665   51.0022 C   0  0  0  1  0  0
   -0.8852  -24.7995   50.6182 C   0  0  0  1  0  0
    3.0820  -23.4380   49.3185 C   0  0  0  1  0  0
    2.6263  -23.2113   50.6168 C   0  0  0  1  0  0
   -2.0024  -24.4319   49.6295 C   0  0  0  1  0  0
   -1.3615  -24.0639   51.9235 C   0  0  0  1  0  0
   -0.8491  -26.3393   50.9746 C   0  0  0  1  0  0
   -2.7791  -25.2901   49.2747 O   0  0  0  1  0  0
   -2.1300  -23.1366   49.1413 N   0  0  0  1  0  0
   -2.7562  -24.5381   52.4158 C   0  0  0  1  0  0
   -1.5707  -26.7572   52.2781 C   0  0  0  1  0  0
   -3.0569  -22.7516   48.1832 C   0  0  0  1  0  0
   -2.8488  -26.0230   52.4068 N   0  0  0  1  0  0
   -4.4508  -22.9720   48.3502 C   0  0  0  1  0  0
   -2.5828  -22.1223   47.0106 C   0  0  0  1  0  0
   -4.0597  -26.6888   52.4498 C   0  0  0  1  0  0
   -4.9041  -23.4771   49.4972 O   0  0  0  1  0  0
   -5.3233  -22.6368   47.2912 C   0  0  0  1  0  0
   -3.4688  -21.7736   45.9809 C   0  0  0  1  0  0
   -4.1343  -28.0900   52.6073 C   0  0  0  1  0  0
   -5.2492  -25.9502   52.3212 C   0  0  0  1  0  0
   -6.3025  -23.6106   49.7792 C   0  0  0  1  0  0
   -4.8430  -22.0418   46.1115 C   0  0  0  1  0  0
   -5.3877  -28.7367   52.6407 C   0  0  0  1  0  0
   -6.4911  -26.5948   52.3135 C   0  0  0  1  0  0
   -5.7948  -21.6981   45.0123 C   0  0  0  1  0  0
   -6.5752  -27.9887   52.4882 C   0  0  0  1  0  0
   -7.9384  -28.6494   52.5096 C   0  0  0  1  0  0
   -8.6834  -28.4435   53.8262 C   0  0  0  1  0  0
   -8.2074  -29.9067   51.6921 C   0  0  0  1  0  0
   -8.7748  -28.5828   51.2417 C   0  0  0  1  0  0
   -9.1268  -29.4011   54.4192 O   0  0  0  1  0  0
   -8.8256  -27.1955   54.2824 O   0  0  0  1  0  0
    2.6358  -24.2958   47.3994 H   0  0
    1.0179  -23.4791   52.0205 H   0  0
    4.0636  -23.0773   49.0112 H   0  0
    3.2558  -22.6805   51.3310 H   0  0
   -1.4002  -22.9914   51.7330 H   0  0
   -0.6307  -24.2356   52.7138 H   0  0
    0.1919  -26.6556   51.0416 H   0  0
   -1.2860  -26.8965   50.1459 H   0  0
   -1.4710  -22.3883   49.5294 H   0  0
   -3.5277  -24.1270   51.7647 H   0  0
   -2.9226  -24.1746   53.4298 H   0  0
   -1.7702  -27.8285   52.2542 H   0  0
   -0.9355  -26.5292   53.1340 H   0  0
   -1.5197  -21.9060   46.9053 H   0  0
   -6.3889  -22.8433   47.3905 H   0  0
   -3.0916  -21.2938   45.0778 H   0  0
   -3.2194  -28.6746   52.7035 H   0  0
   -5.2035  -24.8653   52.2266 H   0  0
   -6.6848  -24.2049   48.9493 H   0  0
   -6.6964  -22.6025   49.6503 H   0  0
   -6.5379  -24.0386   50.7536 H   0  0
   -5.4393  -29.8159   52.7845 H   0  0
   -7.4013  -26.0123   52.1710 H   0  0
   -6.5364  -21.0455   45.4730 H   0  0
   -6.2971  -22.6344   44.7690 H   0  0
   -5.3204  -21.2417   44.1435 H   0  0
   -8.9677  -30.5323   52.1598 H   0  0
   -7.3365  -30.1931   51.1025 H   0  0
   -8.2082  -28.1643   50.4099 H   0  0
   -9.8380  -28.5027   51.4681 H   0  0
   -9.3071  -26.6688   53.5122 H   0  0
  1  2  1  0
  2  3  1  0
  2  4  1  0
  2  5  1  0
  5  6  2  0
  5  7  1  0
  6  8  1  0
  6  9  1  0
  7 10  2  0
  8 11  2  0
  9 12  1  0
  9 13  1  0
  9 14  1  0
 10 11  1  0
 12 15  2  0
 12 16  1  0
 13 17  1  0
 14 18  1  0
 16 19  1  0
 17 20  1  0
 18 20  1  0
 19 21  2  0
 19 22  1  0
 20 23  1  0
 21 24  1  0
 21 25  1  0
 22 26  2  0
 23 27  2  0
 23 28  1  0
 24 29  1  0
 25 30  2  0
 26 30  1  0
 27 31  1  0
 28 32  2  0
 30 33  1  0
 31 34  2  0
 32 34  1  0
 34 35  1  0
 35 36  1  0
 35 37  1  0
 35 38  1  0
 36 39  2  0
 36 40  1  0
 37 38  1  0
  7 41  1  0
  8 42  1  0
 10 43  1  0
 11 44  1  0
 13 45  1  0
 13 46  1  0
 14 47  1  0
 14 48  1  0
 16 49  1  0
 17 50  1  0
 17 51  1  0
 18 52  1  0
 18 53  1  0
 22 54  1  0
 25 55  1  0
 26 56  1  0
 27 57  1  0
 28 58  1  0
 29 59  1  0
 29 60  1  0
 29 61  1  0
 31 62  1  0
 32 63  1  0
 33 64  1  0
 33 65  1  0
 33 66  1  0
 37 67  1  0
 37 68  1  0
 38 69  1  0
 38 70  1  0
 40 71  1  0
M  END
> <Name>
10

> <AbsoluteEnergy>
79.7549

> <Clean Energy>
144.703

> <Column 1>
10

> <ConfNumber>
72

> <Filter_Pass>
Failed

> <IC50_nM>
62.87

> <LogP>
6.32

> <MOL_NUMBER>
7

> <QSAR_Score_pIC50>
7.202

> <RelativeEnergy>
9.38518

> <SMILES>
COc1cc(C)ccc1NC(=O)C1(c2ccccc2C(F)(F)F)CCN(c2ccc(C3(C(=O)O)CC3)cc2)CC1

> <Toxicity_Alerts>
DILI, Basic N (hERG Warning)

> <Type>
Analog

> <POSE_NUMBER>
4

> <LibDockScore>
134.1737

> <HotSpots>
2.67,-23.92,48.98,A,32,7
-4.93,-23.52,47.59,A,26,25
-5.93,-22.12,45.59,A,14,33

$$$$
10
  SciTegic05082609073D

 71 75  0  0  0  0            999 V2000
    1.8055  -25.2714   53.2798 F   0  0  0  1  0  0
    0.6635  -24.9959   52.5541 C   0  0  0  1  0  0
    0.0836  -23.8799   53.1042 F   0  0  0  1  0  0
   -0.1681  -26.0645   52.7440 F   0  0  0  1  0  0
    0.9761  -24.7477   51.0840 C   0  0  0  1  0  0
    0.0838  -24.9942   49.9723 C   0  0  0  1  0  0
    2.2711  -24.2311   50.8159 C   0  0  0  1  0  0
    0.6381  -24.8671   48.6638 C   0  0  0  1  0  0
   -1.4135  -25.3934   50.0841 C   0  0  0  1  0  0
    2.7437  -24.0442   49.5138 C   0  0  0  1  0  0
    1.9313  -24.3821   48.4338 C   0  0  0  1  0  0
   -2.2746  -24.8767   48.9005 C   0  0  0  1  0  0
   -1.5474  -26.9578   50.1749 C   0  0  0  1  0  0
   -2.1762  -24.7633   51.2906 C   0  0  0  1  0  0
   -3.0828  -25.6239   48.3926 O   0  0  0  1  0  0
   -2.1501  -23.5757   48.4157 N   0  0  0  1  0  0
   -2.5454  -27.5533   51.2145 C   0  0  0  1  0  0
   -3.6451  -25.2398   51.3895 C   0  0  0  1  0  0
   -3.0317  -22.9728   47.5247 C   0  0  0  1  0  0
   -3.7429  -26.7195   51.5552 N   0  0  0  1  0  0
   -2.5623  -22.0608   46.5418 C   0  0  0  1  0  0
   -4.4139  -23.2577   47.6071 C   0  0  0  1  0  0
   -4.9076  -27.3082   52.0627 C   0  0  0  1  0  0
   -1.2547  -21.7993   46.4756 O   0  0  0  1  0  0
   -3.4992  -21.4657   45.6594 C   0  0  0  1  0  0
   -5.3253  -22.6614   46.7273 C   0  0  0  1  0  0
   -6.0955  -26.5591   52.2326 C   0  0  0  1  0  0
   -4.9265  -28.6746   52.4304 C   0  0  0  1  0  0
   -0.6476  -21.1797   45.3364 C   0  0  0  1  0  0
   -4.8729  -21.7628   45.7480 C   0  0  0  1  0  0
   -7.2609  -27.1559   52.7555 C   0  0  0  1  0  0
   -6.0866  -29.2681   52.9593 C   0  0  0  1  0  0
   -5.8525  -21.1325   44.8114 C   0  0  0  1  0  0
   -7.2676  -28.5176   53.1264 C   0  0  0  1  0  0
   -8.5209  -29.1804   53.6957 C   0  0  0  1  0  0
   -8.6655  -29.1001   55.2278 C   0  0  0  1  0  0
   -9.0023  -30.4502   53.0042 C   0  0  0  1  0  0
   -9.7962  -29.1740   52.8632 C   0  0  0  1  0  0
   -7.7386  -28.6731   55.8779 O   0  0  0  1  0  0
   -9.7979  -29.4977   55.8401 O   0  0  0  1  0  0
    2.9185  -23.9715   51.6535 H   0  0
    0.0298  -25.1596   47.8079 H   0  0
    3.7406  -23.6371   49.3447 H   0  0
    2.3006  -24.2695   47.4145 H   0  0
   -0.5602  -27.3729   50.3780 H   0  0
   -1.8222  -27.3329   49.1891 H   0  0
   -2.1624  -23.6778   51.1925 H   0  0
   -1.6571  -25.0229   52.2132 H   0  0
   -1.3150  -22.9985   48.7538 H   0  0
   -2.8949  -28.5170   50.8441 H   0  0
   -2.0015  -27.7615   52.1359 H   0  0
   -4.1218  -24.7541   52.2409 H   0  0
   -4.1784  -24.9472   50.4850 H   0  0
   -4.7752  -23.9514   48.3663 H   0  0
   -3.1502  -20.7664   44.8996 H   0  0
   -6.3873  -22.8951   46.8027 H   0  0
   -6.1100  -25.5051   51.9552 H   0  0
   -4.0272  -29.2769   52.3016 H   0  0
   -1.2060  -20.2519   45.2122 H   0  0
   -0.9270  -21.8263   44.5046 H   0  0
    0.4284  -21.0233   45.4127 H   0  0
   -8.1656  -26.5597   52.8745 H   0  0
   -6.0721  -30.3204   53.2432 H   0  0
   -5.4883  -21.3896   43.8167 H   0  0
   -5.7037  -20.0600   44.9367 H   0  0
   -6.8870  -21.4358   44.9726 H   0  0
   -9.4677  -31.1378   53.7103 H   0  0
   -8.4187  -30.6624   52.1084 H   0  0
   -9.6370  -28.7063   51.8916 H   0  0
  -10.6849  -29.1809   53.4943 H   0  0
   -9.9296  -30.4881   55.5173 H   0  0
  1  2  1  0
  2  3  1  0
  2  4  1  0
  2  5  1  0
  5  6  2  0
  5  7  1  0
  6  8  1  0
  6  9  1  0
  7 10  2  0
  8 11  2  0
  9 12  1  0
  9 13  1  0
  9 14  1  0
 10 11  1  0
 12 15  2  0
 12 16  1  0
 13 17  1  0
 14 18  1  0
 16 19  1  0
 17 20  1  0
 18 20  1  0
 19 21  2  0
 19 22  1  0
 20 23  1  0
 21 24  1  0
 21 25  1  0
 22 26  2  0
 23 27  2  0
 23 28  1  0
 24 29  1  0
 25 30  2  0
 26 30  1  0
 27 31  1  0
 28 32  2  0
 30 33  1  0
 31 34  2  0
 32 34  1  0
 34 35  1  0
 35 36  1  0
 35 37  1  0
 35 38  1  0
 36 39  2  0
 36 40  1  0
 37 38  1  0
  7 41  1  0
  8 42  1  0
 10 43  1  0
 11 44  1  0
 13 45  1  0
 13 46  1  0
 14 47  1  0
 14 48  1  0
 16 49  1  0
 17 50  1  0
 17 51  1  0
 18 52  1  0
 18 53  1  0
 22 54  1  0
 25 55  1  0
 26 56  1  0
 27 57  1  0
 28 58  1  0
 29 59  1  0
 29 60  1  0
 29 61  1  0
 31 62  1  0
 32 63  1  0
 33 64  1  0
 33 65  1  0
 33 66  1  0
 37 67  1  0
 37 68  1  0
 38 69  1  0
 38 70  1  0
 40 71  1  0
M  END
> <Name>
10

> <AbsoluteEnergy>
82.8647

> <Clean Energy>
144.703

> <Column 1>
10

> <ConfNumber>
102

> <Filter_Pass>
Failed

> <IC50_nM>
62.87

> <LogP>
6.32

> <MOL_NUMBER>
7

> <QSAR_Score_pIC50>
7.202

> <RelativeEnergy>
12.495

> <SMILES>
COc1cc(C)ccc1NC(=O)C1(c2ccccc2C(F)(F)F)CCN(c2ccc(C3(C(=O)O)CC3)cc2)CC1

> <Toxicity_Alerts>
DILI, Basic N (hERG Warning)

> <Type>
Analog

> <POSE_NUMBER>
5

> <LibDockScore>
132.8812

> <HotSpots>
-0.33,-25.52,53.19,A,64,4
-4.93,-23.52,47.59,A,26,22
-9.53,-30.12,52.78,A,62,38

$$$$
10
  SciTegic05082609073D

 71 75  0  0  0  0            999 V2000
   -2.9753  -25.0793   47.5673 F   0  0  0  1  0  0
   -3.8778  -24.0585   47.6400 C   0  0  0  1  0  0
   -3.2022  -22.8933   47.3844 F   0  0  0  1  0  0
   -4.7841  -24.2501   46.6193 F   0  0  0  1  0  0
   -4.5926  -23.8856   48.9768 C   0  0  0  1  0  0
   -4.1271  -24.3334   50.2701 C   0  0  0  1  0  0
   -5.8281  -23.1917   48.8963 C   0  0  0  1  0  0
   -4.9226  -24.0018   51.3965 C   0  0  0  1  0  0
   -2.8297  -25.1382   50.4954 C   0  0  0  1  0  0
   -6.6004  -22.9233   50.0303 C   0  0  0  1  0  0
   -6.1438  -23.3259   51.2853 C   0  0  0  1  0  0
   -1.6105  -24.3426   49.9652 C   0  0  0  1  0  0
   -2.4228  -25.3676   52.0016 C   0  0  0  1  0  0
   -3.0411  -26.5788   49.9208 C   0  0  0  1  0  0
   -1.7293  -23.1588   49.7322 O   0  0  0  1  0  0
   -0.3805  -24.9577   49.7758 N   0  0  0  1  0  0
   -3.1963  -26.3983   52.8693 C   0  0  0  1  0  0
   -4.0787  -27.4200   50.6994 C   0  0  0  1  0  0
    0.8720  -24.3455   49.7192 C   0  0  0  1  0  0
   -3.7089  -27.5864   52.1315 N   0  0  0  1  0  0
    1.2352  -23.3336   48.7840 C   0  0  0  1  0  0
    1.8315  -24.7839   50.6623 C   0  0  0  1  0  0
   -3.8678  -28.8041   52.7883 C   0  0  0  1  0  0
    0.3647  -22.9461   47.8521 O   0  0  0  1  0  0
    2.5362  -22.7695   48.8571 C   0  0  0  1  0  0
    3.1144  -24.2205   50.7123 C   0  0  0  1  0  0
   -3.2347  -29.0297   54.0319 C   0  0  0  1  0  0
   -4.6677  -29.8298   52.2355 C   0  0  0  1  0  0
    0.6745  -21.9223   46.8966 C   0  0  0  1  0  0
    3.4716  -23.2053   49.8104 C   0  0  0  1  0  0
   -3.4141  -30.2446   54.7173 C   0  0  0  1  0  0
   -4.8586  -31.0386   52.9318 C   0  0  0  1  0  0
    4.8315  -22.5849   49.8528 C   0  0  0  1  0  0
   -4.2337  -31.2503   54.1745 C   0  0  0  1  0  0
   -4.4355  -32.5462   54.9307 C   0  0  0  1  0  0
   -5.2017  -32.3655   56.2376 C   0  0  0  1  0  0
   -3.3260  -33.5889   54.8893 C   0  0  0  1  0  0
   -4.6330  -33.8555   54.1770 C   0  0  0  1  0  0
   -6.3769  -32.6523   56.2855 O   0  0  0  1  0  0
   -4.5499  -31.8969   57.3038 O   0  0  0  1  0  0
   -6.1852  -22.8583   47.9219 H   0  0
   -4.5693  -24.2844   52.3882 H   0  0
   -7.5533  -22.4028   49.9344 H   0  0
   -6.7355  -23.1151   52.1762 H   0  0
   -2.4683  -24.4051   52.5111 H   0  0
   -1.3677  -25.6401   52.0247 H   0  0
   -3.3619  -26.4999   48.8821 H   0  0
   -2.0867  -27.1052   49.9280 H   0  0
   -0.3945  -26.0213   49.6602 H   0  0
   -2.5412  -26.7433   53.6693 H   0  0
   -4.0389  -25.8951   53.3434 H   0  0
   -4.1608  -28.4039   50.2375 H   0  0
   -5.0516  -26.9324   50.6382 H   0  0
    1.5680  -25.5754   51.3639 H   0  0
    2.8153  -21.9810   48.1582 H   0  0
    3.8348  -24.5707   51.4516 H   0  0
   -2.6015  -28.2547   54.4637 H   0  0
   -5.1398  -29.6841   51.2639 H   0  0
    1.5855  -22.2747   46.4128 H   0  0
    0.9542  -21.0632   47.5063 H   0  0
   -0.1233  -21.6988   46.1883 H   0  0
   -2.9159  -30.4074   55.6730 H   0  0
   -5.4942  -31.8149   52.5057 H   0  0
    4.6529  -21.5172   49.9802 H   0  0
    5.2395  -22.7260   48.8520 H   0  0
    5.4793  -22.9941   50.6281 H   0  0
   -3.2598  -34.1400   55.8274 H   0  0
   -2.5381  -33.3061   54.1912 H   0  0
   -4.5398  -33.7149   53.1001 H   0  0
   -5.2622  -34.5474   54.7369 H   0  0
   -4.1432  -30.9788   56.9968 H   0  0
  1  2  1  0
  2  3  1  0
  2  4  1  0
  2  5  1  0
  5  6  2  0
  5  7  1  0
  6  8  1  0
  6  9  1  0
  7 10  2  0
  8 11  2  0
  9 12  1  0
  9 13  1  0
  9 14  1  0
 10 11  1  0
 12 15  2  0
 12 16  1  0
 13 17  1  0
 14 18  1  0
 16 19  1  0
 17 20  1  0
 18 20  1  0
 19 21  2  0
 19 22  1  0
 20 23  1  0
 21 24  1  0
 21 25  1  0
 22 26  2  0
 23 27  2  0
 23 28  1  0
 24 29  1  0
 25 30  2  0
 26 30  1  0
 27 31  1  0
 28 32  2  0
 30 33  1  0
 31 34  2  0
 32 34  1  0
 34 35  1  0
 35 36  1  0
 35 37  1  0
 35 38  1  0
 36 39  2  0
 36 40  1  0
 37 38  1  0
  7 41  1  0
  8 42  1  0
 10 43  1  0
 11 44  1  0
 13 45  1  0
 13 46  1  0
 14 47  1  0
 14 48  1  0
 16 49  1  0
 17 50  1  0
 17 51  1  0
 18 52  1  0
 18 53  1  0
 22 54  1  0
 25 55  1  0
 26 56  1  0
 27 57  1  0
 28 58  1  0
 29 59  1  0
 29 60  1  0
 29 61  1  0
 31 62  1  0
 32 63  1  0
 33 64  1  0
 33 65  1  0
 33 66  1  0
 37 67  1  0
 37 68  1  0
 38 69  1  0
 38 70  1  0
 40 71  1  0
M  END
> <Name>
10

> <AbsoluteEnergy>
79.5157

> <Clean Energy>
144.703

> <Column 1>
10

> <ConfNumber>
71

> <Filter_Pass>
Failed

> <IC50_nM>
62.87

> <LogP>
6.32

> <MOL_NUMBER>
7

> <QSAR_Score_pIC50>
7.202

> <RelativeEnergy>
9.14601

> <SMILES>
COc1cc(C)ccc1NC(=O)C1(c2ccccc2C(F)(F)F)CCN(c2ccc(C3(C(=O)O)CC3)cc2)CC1

> <Toxicity_Alerts>
DILI, Basic N (hERG Warning)

> <Type>
Analog

> <POSE_NUMBER>
6

> <LibDockScore>
131.791

> <HotSpots>
-4.53,-24.52,46.19,A,17,4
-6.53,-23.32,50.38,A,45,11
-4.33,-32.92,55.19,A,75,37

$$$$
10
  SciTegic05082609073D

 71 75  0  0  0  0            999 V2000
    0.1070  -25.7444   47.5055 F   0  0  0  1  0  0
    1.0097  -24.7353   47.7431 C   0  0  0  1  0  0
    2.1309  -24.9863   46.9815 F   0  0  0  1  0  0
    0.4971  -23.5519   47.2860 F   0  0  0  1  0  0
    1.3504  -24.7263   49.2249 C   0  0  0  1  0  0
    0.4032  -24.7628   50.3142 C   0  0  0  1  0  0
    2.7346  -24.6771   49.5264 C   0  0  0  1  0  0
    0.9203  -24.6087   51.6283 C   0  0  0  1  0  0
   -1.1239  -24.9443   50.1433 C   0  0  0  1  0  0
    3.2032  -24.5789   50.8387 C   0  0  0  1  0  0
    2.2917  -24.5256   51.8908 C   0  0  0  1  0  0
   -1.6760  -23.8812   49.1709 C   0  0  0  1  0  0
   -1.9379  -24.7435   51.4742 C   0  0  0  1  0  0
   -1.4795  -26.4153   49.7332 C   0  0  0  1  0  0
   -1.5067  -22.7076   49.4163 O   0  0  0  1  0  0
   -2.3568  -24.2661   48.0219 N   0  0  0  1  0  0
   -1.6758  -25.7899   52.5827 C   0  0  0  1  0  0
   -1.1114  -27.4654   50.7970 C   0  0  0  1  0  0
   -3.1399  -23.4845   47.1672 C   0  0  0  1  0  0
   -1.8270  -27.1786   52.0691 N   0  0  0  1  0  0
   -4.0373  -24.1258   46.2689 C   0  0  0  1  0  0
   -3.0786  -22.0698   47.1740 C   0  0  0  1  0  0
   -2.5886  -28.1422   52.7234 C   0  0  0  1  0  0
   -4.1075  -25.4580   46.2724 O   0  0  0  1  0  0
   -4.8273  -23.3387   45.3971 C   0  0  0  1  0  0
   -3.8645  -21.3077   46.2998 C   0  0  0  1  0  0
   -3.2773  -29.1339   51.9880 C   0  0  0  1  0  0
   -2.6957  -28.1483   54.1321 C   0  0  0  1  0  0
   -4.8255  -26.1982   45.2797 C   0  0  0  1  0  0
   -4.7418  -21.9369   45.4055 C   0  0  0  1  0  0
   -4.0479  -30.1079   52.6449 C   0  0  0  1  0  0
   -3.4627  -29.1250   54.7885 C   0  0  0  1  0  0
   -5.5743  -21.1150   44.4752 C   0  0  0  1  0  0
   -4.1411  -30.1078   54.0474 C   0  0  0  1  0  0
   -4.9679  -31.1560   54.7539 C   0  0  0  1  0  0
   -6.4542  -30.8381   54.7486 C   0  0  0  1  0  0
   -4.3918  -31.8639   55.9702 C   0  0  0  1  0  0
   -4.5404  -32.6129   54.6694 C   0  0  0  1  0  0
   -6.9865  -30.4998   55.7805 O   0  0  0  1  0  0
   -7.1334  -30.9418   53.6065 O   0  0  0  1  0  0
    3.4552  -24.7171   48.7095 H   0  0
    0.2221  -24.5531   52.4635 H   0  0
    4.2743  -24.5442   51.0380 H   0  0
    2.6463  -24.4194   52.9160 H   0  0
   -1.7139  -23.7540   51.8727 H   0  0
   -3.0017  -24.7507   51.2366 H   0  0
   -0.9608  -26.6588   48.8060 H   0  0
   -2.5495  -26.4769   49.5349 H   0  0
   -2.2699  -25.2989   47.7559 H   0  0
   -2.3803  -25.6327   53.3995 H   0  0
   -0.6642  -25.6594   52.9671 H   0  0
   -1.3927  -28.4561   50.4400 H   0  0
   -0.0362  -27.4407   50.9744 H   0  0
   -2.4090  -21.5655   47.8708 H   0  0
   -5.5140  -23.8291   44.7072 H   0  0
   -3.7935  -20.2201   46.3150 H   0  0
   -3.2098  -29.1430   50.9001 H   0  0
   -2.1778  -27.3872   54.7157 H   0  0
   -4.3910  -25.8642   44.3375 H   0  0
   -5.8335  -25.7856   45.3222 H   0  0
   -4.8017  -27.2812   45.4011 H   0  0
   -4.5750  -30.8658   52.0653 H   0  0
   -3.5320  -29.1207   55.8763 H   0  0
   -6.6007  -21.4176   44.6826 H   0  0
   -5.3277  -21.4881   43.4812 H   0  0
   -5.4250  -20.0395   44.5704 H   0  0
   -5.1715  -32.1349   56.6820 H   0  0
   -3.3575  -31.5709   56.1502 H   0  0
   -3.5852  -32.7204   54.1555 H   0  0
   -5.3999  -33.2830   54.6866 H   0  0
   -6.9768  -31.9286   53.2838 H   0  0
  1  2  1  0
  2  3  1  0
  2  4  1  0
  2  5  1  0
  5  6  2  0
  5  7  1  0
  6  8  1  0
  6  9  1  0
  7 10  2  0
  8 11  2  0
  9 12  1  0
  9 13  1  0
  9 14  1  0
 10 11  1  0
 12 15  2  0
 12 16  1  0
 13 17  1  0
 14 18  1  0
 16 19  1  0
 17 20  1  0
 18 20  1  0
 19 21  2  0
 19 22  1  0
 20 23  1  0
 21 24  1  0
 21 25  1  0
 22 26  2  0
 23 27  2  0
 23 28  1  0
 24 29  1  0
 25 30  2  0
 26 30  1  0
 27 31  1  0
 28 32  2  0
 30 33  1  0
 31 34  2  0
 32 34  1  0
 34 35  1  0
 35 36  1  0
 35 37  1  0
 35 38  1  0
 36 39  2  0
 36 40  1  0
 37 38  1  0
  7 41  1  0
  8 42  1  0
 10 43  1  0
 11 44  1  0
 13 45  1  0
 13 46  1  0
 14 47  1  0
 14 48  1  0
 16 49  1  0
 17 50  1  0
 17 51  1  0
 18 52  1  0
 18 53  1  0
 22 54  1  0
 25 55  1  0
 26 56  1  0
 27 57  1  0
 28 58  1  0
 29 59  1  0
 29 60  1  0
 29 61  1  0
 31 62  1  0
 32 63  1  0
 33 64  1  0
 33 65  1  0
 33 66  1  0
 37 67  1  0
 37 68  1  0
 38 69  1  0
 38 70  1  0
 40 71  1  0
M  END
> <Name>
10

> <AbsoluteEnergy>
72.5574

> <Clean Energy>
144.703

> <Column 1>
10

> <ConfNumber>
8

> <Filter_Pass>
Failed

> <IC50_nM>
62.87

> <LogP>
6.32

> <MOL_NUMBER>
7

> <QSAR_Score_pIC50>
7.202

> <RelativeEnergy>
2.18768

> <SMILES>
COc1cc(C)ccc1NC(=O)C1(c2ccccc2C(F)(F)F)CCN(c2ccc(C3(C(=O)O)CC3)cc2)CC1

> <Toxicity_Alerts>
DILI, Basic N (hERG Warning)

> <Type>
Analog

> <POSE_NUMBER>
7

> <LibDockScore>
130.6107

> <HotSpots>
0.27,-24.92,46.38,A,19,4
3.07,-24.52,50.38,A,43,10
-4.93,-21.52,45.19,A,11,25

$$$$
10
  SciTegic05082609073D

 71 75  0  0  0  0            999 V2000
   -4.5324  -24.0264   46.8040 F   0  0  0  1  0  0
   -3.7546  -23.7983   47.9181 C   0  0  0  1  0  0
   -2.8623  -24.8301   47.9840 F   0  0  0  1  0  0
   -3.0431  -22.6388   47.7126 F   0  0  0  1  0  0
   -4.6786  -23.6068   49.1130 C   0  0  0  1  0  0
   -4.5320  -24.1728   50.4331 C   0  0  0  1  0  0
   -5.7971  -22.7763   48.8496 C   0  0  0  1  0  0
   -5.5948  -23.9643   51.3546 C   0  0  0  1  0  0
   -3.3186  -25.0024   50.9005 C   0  0  0  1  0  0
   -6.7945  -22.5519   49.8041 C   0  0  0  1  0  0
   -6.7003  -23.1618   51.0539 C   0  0  0  1  0  0
   -1.9847  -24.2646   50.6930 C   0  0  0  1  0  0
   -3.4148  -26.3897   50.1834 C   0  0  0  1  0  0
   -3.2922  -25.2848   52.4601 C   0  0  0  1  0  0
   -1.9674  -23.1229   50.2852 O   0  0  0  1  0  0
   -0.8020  -24.9140   51.0080 N   0  0  0  1  0  0
   -4.6554  -27.1978   50.6163 C   0  0  0  1  0  0
   -3.6603  -26.7168   52.8976 C   0  0  0  1  0  0
    0.4799  -24.4884   50.7042 C   0  0  0  1  0  0
   -4.7775  -27.3017   52.1018 N   0  0  0  1  0  0
    0.8247  -23.8591   49.4794 C   0  0  0  1  0  0
    1.4718  -24.7078   51.6826 C   0  0  0  1  0  0
   -5.8733  -27.9118   52.7098 C   0  0  0  1  0  0
   -0.1046  -23.7171   48.5355 O   0  0  0  1  0  0
    2.1563  -23.4181   49.2961 C   0  0  0  1  0  0
    2.7873  -24.2750   51.4784 C   0  0  0  1  0  0
   -5.6991  -28.7806   53.8144 C   0  0  0  1  0  0
   -7.1873  -27.6761   52.2433 C   0  0  0  1  0  0
    0.1596  -23.0663   47.2872 C   0  0  0  1  0  0
    3.1343  -23.6198   50.2863 C   0  0  0  1  0  0
   -6.8050  -29.3444   54.4688 C   0  0  0  1  0  0
   -8.2931  -28.2440   52.8942 C   0  0  0  1  0  0
    4.5295  -23.1388   50.0599 C   0  0  0  1  0  0
   -8.1067  -29.0584   54.0237 C   0  0  0  1  0  0
   -9.2985  -29.6068   54.7648 C   0  0  0  1  0  0
   -9.5946  -28.8045   56.0197 C   0  0  0  1  0  0
   -9.5482  -31.1059   54.7869 C   0  0  0  1  0  0
  -10.4583  -30.2062   53.9858 C   0  0  0  1  0  0
   -9.6431  -27.5973   55.9494 O   0  0  0  1  0  0
   -9.7796  -29.4534   57.1688 O   0  0  0  1  0  0
   -5.8823  -22.2982   47.8737 H   0  0
   -5.5462  -24.4473   52.3305 H   0  0
   -7.6400  -21.9043   49.5721 H   0  0
   -7.4859  -23.0138   51.7949 H   0  0
   -3.4536  -26.2309   49.1057 H   0  0
   -2.5190  -26.9693   50.4066 H   0  0
   -2.2954  -25.0556   52.8369 H   0  0
   -3.9736  -24.5897   52.9506 H   0  0
   -0.8881  -25.8383   51.5401 H   0  0
   -5.5498  -26.7174   50.2196 H   0  0
   -4.5933  -28.2010   50.1947 H   0  0
   -3.9452  -26.7051   53.9496 H   0  0
   -2.7828  -27.3553   52.7960 H   0  0
    1.2110  -25.2203   52.6085 H   0  0
    2.4294  -22.9124   48.3699 H   0  0
    3.5425  -24.4468   52.2453 H   0  0
   -4.6925  -29.0145   54.1610 H   0  0
   -7.3430  -27.0458   51.3677 H   0  0
    1.0073  -23.6149   46.8767 H   0  0
    0.5323  -22.0832   47.5747 H   0  0
   -0.6879  -23.0175   46.6035 H   0  0
   -6.6542  -30.0046   55.3229 H   0  0
   -9.2997  -28.0527   52.5224 H   0  0
    4.4324  -22.0724   49.8564 H   0  0
    4.8470  -23.6156   49.1326 H   0  0
    5.2079  -23.3449   50.8878 H   0  0
  -10.0141  -31.4205   55.7207 H   0  0
   -8.8439  -31.6379   54.1474 H   0  0
  -10.2392  -30.2594   52.9194 H   0  0
  -11.4086  -30.0406   54.4933 H   0  0
   -8.9089  -30.0241   57.3056 H   0  0
  1  2  1  0
  2  3  1  0
  2  4  1  0
  2  5  1  0
  5  6  2  0
  5  7  1  0
  6  8  1  0
  6  9  1  0
  7 10  2  0
  8 11  2  0
  9 12  1  0
  9 13  1  0
  9 14  1  0
 10 11  1  0
 12 15  2  0
 12 16  1  0
 13 17  1  0
 14 18  1  0
 16 19  1  0
 17 20  1  0
 18 20  1  0
 19 21  2  0
 19 22  1  0
 20 23  1  0
 21 24  1  0
 21 25  1  0
 22 26  2  0
 23 27  2  0
 23 28  1  0
 24 29  1  0
 25 30  2  0
 26 30  1  0
 27 31  1  0
 28 32  2  0
 30 33  1  0
 31 34  2  0
 32 34  1  0
 34 35  1  0
 35 36  1  0
 35 37  1  0
 35 38  1  0
 36 39  2  0
 36 40  1  0
 37 38  1  0
  7 41  1  0
  8 42  1  0
 10 43  1  0
 11 44  1  0
 13 45  1  0
 13 46  1  0
 14 47  1  0
 14 48  1  0
 16 49  1  0
 17 50  1  0
 17 51  1  0
 18 52  1  0
 18 53  1  0
 22 54  1  0
 25 55  1  0
 26 56  1  0
 27 57  1  0
 28 58  1  0
 29 59  1  0
 29 60  1  0
 29 61  1  0
 31 62  1  0
 32 63  1  0
 33 64  1  0
 33 65  1  0
 33 66  1  0
 37 67  1  0
 37 68  1  0
 38 69  1  0
 38 70  1  0
 40 71  1  0
M  END
> <Name>
10

> <AbsoluteEnergy>
78.7018

> <Clean Energy>
144.703

> <Column 1>
10

> <ConfNumber>
61

> <Filter_Pass>
Failed

> <IC50_nM>
62.87

> <LogP>
6.32

> <MOL_NUMBER>
7

> <QSAR_Score_pIC50>
7.202

> <RelativeEnergy>
8.33215

> <SMILES>
COc1cc(C)ccc1NC(=O)C1(c2ccccc2C(F)(F)F)CCN(c2ccc(C3(C(=O)O)CC3)cc2)CC1

> <Toxicity_Alerts>
DILI, Basic N (hERG Warning)

> <Type>
Analog

> <POSE_NUMBER>
8

> <LibDockScore>
130.4764

> <HotSpots>
-6.53,-23.32,50.38,A,45,11
-7.93,-28.32,52.38,A,59,32
4.67,-22.92,49.98,A,40,33

$$$$
10
  SciTegic05082609073D

 71 75  0  0  0  0            999 V2000
    1.7251  -24.9222   53.2855 F   0  0  0  1  0  0
    0.5580  -24.8006   52.5574 C   0  0  0  1  0  0
   -0.1262  -23.7179   53.0514 F   0  0  0  1  0  0
   -0.1635  -25.9333   52.8141 F   0  0  0  1  0  0
    0.8377  -24.6051   51.0728 C   0  0  0  1  0  0
   -0.0671  -24.9207   49.9890 C   0  0  0  1  0  0
    2.1132  -24.0659   50.7596 C   0  0  0  1  0  0
    0.4603  -24.8331   48.6663 C   0  0  0  1  0  0
   -1.5507  -25.3545   50.1452 C   0  0  0  1  0  0
    2.5574  -23.9203   49.4423 C   0  0  0  1  0  0
    1.7356  -24.3239   48.3924 C   0  0  0  1  0  0
   -2.4549  -24.8735   48.9788 C   0  0  0  1  0  0
   -1.6440  -26.9204   50.2579 C   0  0  0  1  0  0
   -2.2968  -24.7280   51.3640 C   0  0  0  1  0  0
   -3.2922  -25.6293   48.5350 O   0  0  0  1  0  0
   -2.3361  -23.5942   48.4379 N   0  0  0  1  0  0
   -2.5995  -27.5269   51.3305 C   0  0  0  1  0  0
   -3.7504  -25.2385   51.5073 C   0  0  0  1  0  0
   -3.2071  -23.0431   47.5041 C   0  0  0  1  0  0
   -3.8078  -26.7180   51.6929 N   0  0  0  1  0  0
   -2.7274  -22.1810   46.4819 C   0  0  0  1  0  0
   -4.5891  -23.3306   47.5812 C   0  0  0  1  0  0
   -4.9440  -27.3283   52.2380 C   0  0  0  1  0  0
   -1.4202  -21.9164   46.4211 O   0  0  0  1  0  0
   -3.6540  -21.6375   45.5563 C   0  0  0  1  0  0
   -5.4901  -22.7857   46.6585 C   0  0  0  1  0  0
   -6.1637  -26.6243   52.3710 C   0  0  0  1  0  0
   -4.9013  -28.6714   52.6819 C   0  0  0  1  0  0
   -0.8260  -21.2058   45.3293 C   0  0  0  1  0  0
   -5.0274  -21.9368   45.6404 C   0  0  0  1  0  0
   -7.3003  -27.2417   52.9320 C   0  0  0  1  0  0
   -6.0328  -29.2850   53.2486 C   0  0  0  1  0  0
   -5.9960  -21.3613   44.6581 C   0  0  0  1  0  0
   -7.2456  -28.5794   53.3787 C   0  0  0  1  0  0
   -8.4670  -29.2639   53.9900 C   0  0  0  1  0  0
   -8.5481  -29.2072   55.5278 C   0  0  0  1  0  0
   -8.9637  -30.5290   53.3006 C   0  0  0  1  0  0
   -9.7761  -29.2597   53.2117 C   0  0  0  1  0  0
   -7.6678  -28.6423   56.1362 O   0  0  0  1  0  0
   -9.5746  -29.7751   56.1904 O   0  0  0  1  0  0
    2.7680  -23.7551   51.5737 H   0  0
   -0.1548  -25.1767   47.8347 H   0  0
    3.5396  -23.4941   49.2381 H   0  0
    2.0836  -24.2437   47.3626 H   0  0
   -0.6420  -27.3090   50.4396 H   0  0
   -1.9354  -27.3142   49.2842 H   0  0
   -2.3121  -23.6438   51.2528 H   0  0
   -1.7476  -24.9635   52.2756 H   0  0
   -1.5144  -22.9920   48.7652 H   0  0
   -2.9348  -28.5033   50.9808 H   0  0
   -2.0268  -27.7103   52.2396 H   0  0
   -4.2164  -24.7539   52.3653 H   0  0
   -4.3142  -24.9701   50.6139 H   0  0
   -4.9584  -23.9858   48.3702 H   0  0
   -3.2971  -20.9768   44.7663 H   0  0
   -6.5520  -23.0208   46.7306 H   0  0
   -6.2257  -25.5893   52.0348 H   0  0
   -3.9764  -29.2396   52.5830 H   0  0
   -1.3840  -20.2703   45.2889 H   0  0
   -1.1171  -21.7814   44.4506 H   0  0
    0.2512  -21.0574   45.4048 H   0  0
   -8.2304  -26.6804   53.0216 H   0  0
   -5.9709  -30.3180   53.5910 H   0  0
   -5.6161  -21.6679   43.6835 H   0  0
   -5.8539  -20.2830   44.7294 H   0  0
   -7.0314  -21.6612   44.8199 H   0  0
   -9.3919  -31.2317   54.0154 H   0  0
   -8.4160  -30.7219   52.3782 H   0  0
   -9.6627  -28.7765   52.2413 H   0  0
  -10.6374  -29.2854   53.8792 H   0  0
   -9.5673  -30.7739   55.8667 H   0  0
  1  2  1  0
  2  3  1  0
  2  4  1  0
  2  5  1  0
  5  6  2  0
  5  7  1  0
  6  8  1  0
  6  9  1  0
  7 10  2  0
  8 11  2  0
  9 12  1  0
  9 13  1  0
  9 14  1  0
 10 11  1  0
 12 15  2  0
 12 16  1  0
 13 17  1  0
 14 18  1  0
 16 19  1  0
 17 20  1  0
 18 20  1  0
 19 21  2  0
 19 22  1  0
 20 23  1  0
 21 24  1  0
 21 25  1  0
 22 26  2  0
 23 27  2  0
 23 28  1  0
 24 29  1  0
 25 30  2  0
 26 30  1  0
 27 31  1  0
 28 32  2  0
 30 33  1  0
 31 34  2  0
 32 34  1  0
 34 35  1  0
 35 36  1  0
 35 37  1  0
 35 38  1  0
 36 39  2  0
 36 40  1  0
 37 38  1  0
  7 41  1  0
  8 42  1  0
 10 43  1  0
 11 44  1  0
 13 45  1  0
 13 46  1  0
 14 47  1  0
 14 48  1  0
 16 49  1  0
 17 50  1  0
 17 51  1  0
 18 52  1  0
 18 53  1  0
 22 54  1  0
 25 55  1  0
 26 56  1  0
 27 57  1  0
 28 58  1  0
 29 59  1  0
 29 60  1  0
 29 61  1  0
 31 62  1  0
 32 63  1  0
 33 64  1  0
 33 65  1  0
 33 66  1  0
 37 67  1  0
 37 68  1  0
 38 69  1  0
 38 70  1  0
 40 71  1  0
M  END
> <Name>
10

> <AbsoluteEnergy>
82.8647

> <Clean Energy>
144.703

> <Column 1>
10

> <ConfNumber>
102

> <Filter_Pass>
Failed

> <IC50_nM>
62.87

> <LogP>
6.32

> <MOL_NUMBER>
7

> <QSAR_Score_pIC50>
7.202

> <RelativeEnergy>
12.495

> <SMILES>
COc1cc(C)ccc1NC(=O)C1(c2ccccc2C(F)(F)F)CCN(c2ccc(C3(C(=O)O)CC3)cc2)CC1

> <Toxicity_Alerts>
DILI, Basic N (hERG Warning)

> <Type>
Analog

> <POSE_NUMBER>
9

> <LibDockScore>
129.7383

> <HotSpots>
1.67,-24.32,50.98,A,50,7
-4.93,-23.52,47.59,A,26,22
-6.33,-21.32,44.98,A,9,33

$$$$
10
  SciTegic05082609073D

 71 75  0  0  0  0            999 V2000
   -2.4548  -26.9897   47.0542 F   0  0  0  1  0  0
   -2.0318  -25.7477   47.4956 C   0  0  0  1  0  0
   -1.3057  -25.9501   48.6291 F   0  0  0  1  0  0
   -1.1617  -25.2467   46.5507 F   0  0  0  1  0  0
   -3.2117  -24.7832   47.5850 C   0  0  0  1  0  0
   -3.7758  -24.1965   48.7790 C   0  0  0  1  0  0
   -3.7650  -24.4333   46.3254 C   0  0  0  1  0  0
   -4.7714  -23.1984   48.5983 C   0  0  0  1  0  0
   -3.3494  -24.5716   50.2152 C   0  0  0  1  0  0
   -4.7946  -23.4975   46.1988 C   0  0  0  1  0  0
   -5.2901  -22.8700   47.3385 C   0  0  0  1  0  0
   -2.0106  -23.8561   50.5207 C   0  0  0  1  0  0
   -3.3437  -26.1332   50.3632 C   0  0  0  1  0  0
   -4.3241  -24.0995   51.3602 C   0  0  0  1  0  0
   -1.8839  -22.6911   50.2041 O   0  0  0  1  0  0
   -0.9423  -24.5081   51.1282 N   0  0  0  1  0  0
   -4.7379  -26.7868   50.2882 C   0  0  0  1  0  0
   -5.7216  -24.7921   51.4946 C   0  0  0  1  0  0
    0.4066  -24.2301   50.8995 C   0  0  0  1  0  0
   -5.6695  -26.2654   51.3265 N   0  0  0  1  0  0
    1.4689  -24.7695   51.6988 C   0  0  0  1  0  0
    0.7382  -23.3910   49.8021 C   0  0  0  1  0  0
   -6.4629  -27.1224   52.0818 C   0  0  0  1  0  0
    1.3760  -25.5332   52.7917 O   0  0  0  1  0  0
    2.7997  -24.4742   51.3366 C   0  0  0  1  0  0
    2.0735  -23.1062   49.4751 C   0  0  0  1  0  0
   -7.5261  -26.6449   52.8877 C   0  0  0  1  0  0
   -6.2143  -28.5055   52.0461 C   0  0  0  1  0  0
    0.1547  -25.9667   53.4032 C   0  0  0  1  0  0
    3.1132  -23.6531   50.2398 C   0  0  0  1  0  0
   -8.3353  -27.5449   53.6143 C   0  0  0  1  0  0
   -7.0253  -29.4012   52.7615 C   0  0  0  1  0  0
    4.5352  -23.3555   49.8841 C   0  0  0  1  0  0
   -8.0892  -28.9291   53.5539 C   0  0  0  1  0  0
   -8.9609  -29.8915   54.3430 C   0  0  0  1  0  0
  -10.2177  -30.3548   53.6098 C   0  0  0  1  0  0
   -9.0501  -29.7123   55.8563 C   0  0  0  1  0  0
   -8.3204  -30.9036   55.2872 C   0  0  0  1  0  0
  -11.2487  -30.4972   54.2347 O   0  0  0  1  0  0
  -10.1508  -30.6199   52.3017 O   0  0  0  1  0  0
   -3.3735  -24.9106   45.4271 H   0  0
   -5.1461  -22.6677   49.4736 H   0  0
   -5.2059  -23.2610   45.2175 H   0  0
   -6.0803  -22.1244   47.2511 H   0  0
   -2.7164  -26.5576   49.5793 H   0  0
   -2.8867  -26.3944   51.3177 H   0  0
   -4.4896  -23.0284   51.2439 H   0  0
   -3.8034  -24.2052   52.3119 H   0  0
   -1.1730  -25.2850   51.8268 H   0  0
   -4.6342  -27.8645   50.4146 H   0  0
   -5.1656  -26.6011   49.3030 H   0  0
   -6.1362  -24.5651   52.4768 H   0  0
   -6.3969  -24.3771   50.7464 H   0  0
   -0.0617  -22.9588   49.2008 H   0  0
    3.6124  -24.8970   51.9272 H   0  0
    2.3015  -22.4603   48.6272 H   0  0
   -7.7207  -25.5741   52.9471 H   0  0
   -5.3815  -28.8875   51.4557 H   0  0
   -0.3662  -26.4567   52.5806 H   0  0
   -0.3737  -25.0294   53.5773 H   0  0
    0.2517  -26.5880   54.2936 H   0  0
   -9.1547  -27.1658   54.2251 H   0  0
   -6.8294  -30.4719   52.7029 H   0  0
    4.9951  -24.3343   49.7483 H   0  0
    4.9618  -22.9281   50.7915 H   0  0
    4.6562  -22.7082   49.0155 H   0  0
  -10.0357  -29.9857   56.2331 H   0  0
   -8.3588  -28.9465   56.2082 H   0  0
   -7.2391  -30.7750   55.3365 H   0  0
   -8.9161  -31.8135   55.3599 H   0  0
   -9.3948  -31.3427   52.2098 H   0  0
  1  2  1  0
  2  3  1  0
  2  4  1  0
  2  5  1  0
  5  6  2  0
  5  7  1  0
  6  8  1  0
  6  9  1  0
  7 10  2  0
  8 11  2  0
  9 12  1  0
  9 13  1  0
  9 14  1  0
 10 11  1  0
 12 15  2  0
 12 16  1  0
 13 17  1  0
 14 18  1  0
 16 19  1  0
 17 20  1  0
 18 20  1  0
 19 21  2  0
 19 22  1  0
 20 23  1  0
 21 24  1  0
 21 25  1  0
 22 26  2  0
 23 27  2  0
 23 28  1  0
 24 29  1  0
 25 30  2  0
 26 30  1  0
 27 31  1  0
 28 32  2  0
 30 33  1  0
 31 34  2  0
 32 34  1  0
 34 35  1  0
 35 36  1  0
 35 37  1  0
 35 38  1  0
 36 39  2  0
 36 40  1  0
 37 38  1  0
  7 41  1  0
  8 42  1  0
 10 43  1  0
 11 44  1  0
 13 45  1  0
 13 46  1  0
 14 47  1  0
 14 48  1  0
 16 49  1  0
 17 50  1  0
 17 51  1  0
 18 52  1  0
 18 53  1  0
 22 54  1  0
 25 55  1  0
 26 56  1  0
 27 57  1  0
 28 58  1  0
 29 59  1  0
 29 60  1  0
 29 61  1  0
 31 62  1  0
 32 63  1  0
 33 64  1  0
 33 65  1  0
 33 66  1  0
 37 67  1  0
 37 68  1  0
 38 69  1  0
 38 70  1  0
 40 71  1  0
M  END
> <Name>
10

> <AbsoluteEnergy>
84.8659

> <Clean Energy>
144.703

> <Column 1>
10

> <ConfNumber>
123

> <Filter_Pass>
Failed

> <IC50_nM>
62.87

> <LogP>
6.32

> <MOL_NUMBER>
7

> <QSAR_Score_pIC50>
7.202

> <RelativeEnergy>
14.4962

> <SMILES>
COc1cc(C)ccc1NC(=O)C1(c2ccccc2C(F)(F)F)CCN(c2ccc(C3(C(=O)O)CC3)cc2)CC1

> <Toxicity_Alerts>
DILI, Basic N (hERG Warning)

> <Type>
Analog

> <POSE_NUMBER>
10

> <LibDockScore>
129.5315

> <HotSpots>
-5.13,-22.92,46.19,A,18,10
2.67,-23.92,48.98,A,32,26
-0.33,-25.52,53.19,A,64,29

$$$$
10
  SciTegic05082609073D

 71 75  0  0  0  0            999 V2000
   -3.8360  -22.7041   51.4108 F   0  0  0  1  0  0
   -4.7818  -22.7254   50.4246 C   0  0  0  1  0  0
   -5.9984  -23.0716   50.9593 F   0  0  0  1  0  0
   -4.8789  -21.4303   49.9562 F   0  0  0  1  0  0
   -4.4504  -23.7076   49.3128 C   0  0  0  1  0  0
   -3.8763  -25.0209   49.4961 C   0  0  0  1  0  0
   -4.7435  -23.2664   47.9979 C   0  0  0  1  0  0
   -3.5897  -25.7728   48.3234 C   0  0  0  1  0  0
   -3.5217  -25.6484   50.8659 C   0  0  0  1  0  0
   -4.4599  -24.0469   46.8750 C   0  0  0  1  0  0
   -3.8758  -25.3000   47.0390 C   0  0  0  1  0  0
   -2.0659  -25.3249   51.2460 C   0  0  0  1  0  0
   -4.5097  -25.2321   52.0063 C   0  0  0  1  0  0
   -3.5961  -27.2178   50.9109 C   0  0  0  1  0  0
   -1.8315  -24.9181   52.3627 O   0  0  0  1  0  0
   -1.0345  -25.4758   50.3233 N   0  0  0  1  0  0
   -5.9506  -25.7451   51.8259 C   0  0  0  1  0  0
   -5.0181  -27.8279   50.7976 C   0  0  0  1  0  0
    0.2668  -24.9945   50.4469 C   0  0  0  1  0  0
   -5.9585  -27.2330   51.7911 N   0  0  0  1  0  0
    1.1431  -25.0446   49.3284 C   0  0  0  1  0  0
    0.7341  -24.4608   51.6694 C   0  0  0  1  0  0
   -6.7739  -27.9996   52.6293 C   0  0  0  1  0  0
    0.6985  -25.5602   48.1817 O   0  0  0  1  0  0
    2.4583  -24.5359   49.4627 C   0  0  0  1  0  0
    2.0388  -23.9589   51.7805 C   0  0  0  1  0  0
   -7.8734  -27.4205   53.3081 C   0  0  0  1  0  0
   -6.5172  -29.3754   52.8268 C   0  0  0  1  0  0
    1.5017  -25.6205   46.9981 C   0  0  0  1  0  0
    2.9063  -23.9906   50.6774 C   0  0  0  1  0  0
   -8.6874  -28.1943   54.1572 C   0  0  0  1  0  0
   -7.3354  -30.1500   53.6689 C   0  0  0  1  0  0
    4.2983  -23.4547   50.7848 C   0  0  0  1  0  0
   -8.4208  -29.5627   54.3461 C   0  0  0  1  0  0
   -9.2968  -30.3858   55.2767 C   0  0  0  1  0  0
  -10.6158  -30.8718   54.6639 C   0  0  0  1  0  0
   -9.3068  -30.0010   56.7494 C   0  0  0  1  0  0
   -8.6289  -31.2775   56.3148 C   0  0  0  1  0  0
  -10.8236  -30.7030   53.4830 O   0  0  0  1  0  0
  -11.5212  -31.4734   55.4475 O   0  0  0  1  0  0
   -5.2042  -22.2883   47.8590 H   0  0
   -3.1295  -26.7551   48.4300 H   0  0
   -4.6943  -23.6774   45.8767 H   0  0
   -3.6419  -25.9115   46.1675 H   0  0
   -4.5326  -24.1443   52.0715 H   0  0
   -4.1241  -25.6022   52.9563 H   0  0
   -2.9830  -27.6177   50.1033 H   0  0
   -3.1461  -27.5611   51.8424 H   0  0
   -1.2646  -26.0161   49.4288 H   0  0
   -6.5651  -25.3996   52.6572 H   0  0
   -6.3593  -25.3596   50.8919 H   0  0
   -4.9609  -28.9040   50.9615 H   0  0
   -5.4035  -27.6529   49.7931 H   0  0
    0.0729  -24.4391   52.5356 H   0  0
    3.1346  -24.5681   48.6085 H   0  0
    2.3809  -23.5422   52.7278 H   0  0
   -8.0925  -26.3615   53.1715 H   0  0
   -5.6733  -29.8428   52.3194 H   0  0
    2.3941  -26.1616   47.3128 H   0  0
    1.8052  -24.5867   46.8330 H   0  0
    1.0156  -26.0666   46.1304 H   0  0
   -9.5292  -27.7304   54.6713 H   0  0
   -7.1276  -31.2122   53.7980 H   0  0
    4.3738  -22.7031   49.9990 H   0  0
    4.9442  -24.2848   50.4987 H   0  0
    4.5438  -23.0553   51.7688 H   0  0
  -10.2766  -30.1961   57.2071 H   0  0
   -8.5839  -29.2132   56.9611 H   0  0
   -7.5443  -31.1707   56.2952 H   0  0
   -9.2376  -32.1533   56.5396 H   0  0
  -11.7146  -30.7843   56.2158 H   0  0
  1  2  1  0
  2  3  1  0
  2  4  1  0
  2  5  1  0
  5  6  2  0
  5  7  1  0
  6  8  1  0
  6  9  1  0
  7 10  2  0
  8 11  2  0
  9 12  1  0
  9 13  1  0
  9 14  1  0
 10 11  1  0
 12 15  2  0
 12 16  1  0
 13 17  1  0
 14 18  1  0
 16 19  1  0
 17 20  1  0
 18 20  1  0
 19 21  2  0
 19 22  1  0
 20 23  1  0
 21 24  1  0
 21 25  1  0
 22 26  2  0
 23 27  2  0
 23 28  1  0
 24 29  1  0
 25 30  2  0
 26 30  1  0
 27 31  1  0
 28 32  2  0
 30 33  1  0
 31 34  2  0
 32 34  1  0
 34 35  1  0
 35 36  1  0
 35 37  1  0
 35 38  1  0
 36 39  2  0
 36 40  1  0
 37 38  1  0
  7 41  1  0
  8 42  1  0
 10 43  1  0
 11 44  1  0
 13 45  1  0
 13 46  1  0
 14 47  1  0
 14 48  1  0
 16 49  1  0
 17 50  1  0
 17 51  1  0
 18 52  1  0
 18 53  1  0
 22 54  1  0
 25 55  1  0
 26 56  1  0
 27 57  1  0
 28 58  1  0
 29 59  1  0
 29 60  1  0
 29 61  1  0
 31 62  1  0
 32 63  1  0
 33 64  1  0
 33 65  1  0
 33 66  1  0
 37 67  1  0
 37 68  1  0
 38 69  1  0
 38 70  1  0
 40 71  1  0
M  END
> <Name>
10

> <AbsoluteEnergy>
74.1227

> <Clean Energy>
144.703

> <Column 1>
10

> <ConfNumber>
17

> <Filter_Pass>
Failed

> <IC50_nM>
62.87

> <LogP>
6.32

> <MOL_NUMBER>
7

> <QSAR_Score_pIC50>
7.202

> <RelativeEnergy>
3.75303

> <SMILES>
COc1cc(C)ccc1NC(=O)C1(c2ccccc2C(F)(F)F)CCN(c2ccc(C3(C(=O)O)CC3)cc2)CC1

> <Toxicity_Alerts>
DILI, Basic N (hERG Warning)

> <Type>
Analog

> <POSE_NUMBER>
11

> <LibDockScore>
128.0943

> <HotSpots>
-4.93,-23.52,47.59,A,26,10
2.27,-24.92,52.19,A,58,26
-8.73,-28.12,54.38,A,70,31

$$$$
10
  SciTegic05082609073D

 71 75  0  0  0  0            999 V2000
   -3.2034  -24.7946   47.7245 F   0  0  0  1  0  0
   -4.0007  -23.7045   47.9193 C   0  0  0  1  0  0
   -3.1899  -22.5992   47.9331 F   0  0  0  1  0  0
   -4.8238  -23.6069   46.8180 F   0  0  0  1  0  0
   -4.8144  -23.6875   49.2098 C   0  0  0  1  0  0
   -4.4080  -24.2104   50.4949 C   0  0  0  1  0  0
   -6.0860  -23.0677   49.0937 C   0  0  0  1  0  0
   -5.2986  -24.0231   51.5827 C   0  0  0  1  0  0
   -3.0771  -24.9484   50.7508 C   0  0  0  1  0  0
   -6.9497  -22.9426   50.1858 C   0  0  0  1  0  0
   -6.5527  -23.4179   51.4357 C   0  0  0  1  0  0
   -1.8844  -24.0668   50.3026 C   0  0  0  1  0  0
   -2.7222  -25.2087   52.2651 C   0  0  0  1  0  0
   -3.1800  -26.3770   50.1193 C   0  0  0  1  0  0
   -1.8598  -22.8962   50.6170 O   0  0  0  1  0  0
   -0.8341  -24.6009   49.5685 N   0  0  0  1  0  0
   -3.4712  -26.3119   53.0623 C   0  0  0  1  0  0
   -4.1995  -27.3028   50.8220 C   0  0  0  1  0  0
    0.5071  -24.2187   49.6092 C   0  0  0  1  0  0
   -3.8822  -27.4996   52.2629 N   0  0  0  1  0  0
    1.1708  -23.4888   48.5809 C   0  0  0  1  0  0
    1.2376  -24.6018   50.7590 C   0  0  0  1  0  0
   -3.9983  -28.7472   52.8707 C   0  0  0  1  0  0
    0.5161  -23.1667   47.4655 O   0  0  0  1  0  0
    2.5335  -23.1345   48.7638 C   0  0  0  1  0  0
    2.5855  -24.2500   50.9166 C   0  0  0  1  0  0
   -3.3882  -28.9882   54.1228 C   0  0  0  1  0  0
   -4.7316  -29.7891   52.2589 C   0  0  0  1  0  0
    0.9636  -22.1202   46.5929 C   0  0  0  1  0  0
    3.2397  -23.5092   49.9191 C   0  0  0  1  0  0
   -3.5256  -30.2351   54.7588 C   0  0  0  1  0  0
   -4.8811  -31.0308   52.9055 C   0  0  0  1  0  0
    4.6743  -23.1160   50.0718 C   0  0  0  1  0  0
   -4.2799  -31.2583   54.1570 C   0  0  0  1  0  0
   -4.4376  -32.5897   54.8602 C   0  0  0  1  0  0
   -5.1409  -32.4765   56.2094 C   0  0  0  1  0  0
   -3.3255  -33.6204   54.7165 C   0  0  0  1  0  0
   -4.6638  -33.8638   54.0560 C   0  0  0  1  0  0
   -6.3218  -32.7304   56.2904 O   0  0  0  1  0  0
   -4.4291  -32.1021   57.2744 O   0  0  0  1  0  0
   -6.3982  -22.6779   48.1248 H   0  0
   -4.9947  -24.3638   52.5725 H   0  0
   -7.9272  -22.4766   50.0614 H   0  0
   -7.2162  -23.3186   52.2947 H   0  0
   -2.8449  -24.2693   52.8041 H   0  0
   -1.6550  -25.4221   52.3261 H   0  0
   -3.4601  -26.2789   49.0705 H   0  0
   -2.1979  -26.8487   50.1515 H   0  0
   -1.0810  -25.3953   48.8956 H   0  0
   -2.8321  -26.6480   53.8788 H   0  0
   -4.3610  -25.8743   53.5149 H   0  0
   -4.2047  -28.2724   50.3241 H   0  0
   -5.1955  -26.8689   50.7338 H   0  0
    0.7424  -25.1820   51.5377 H   0  0
    3.0430  -22.5591   47.9908 H   0  0
    3.1259  -24.5517   51.8138 H   0  0
   -2.8057  -28.2001   54.6000 H   0  0
   -5.1843  -29.6303   51.2802 H   0  0
    1.9862  -22.4011   46.3408 H   0  0
    1.0279  -21.2436   47.2375 H   0  0
    0.3393  -21.9566   45.7145 H   0  0
   -3.0456  -30.4091   55.7218 H   0  0
   -5.4660  -31.8204   52.4338 H   0  0
    4.6831  -22.0302   49.9763 H   0  0
    5.1750  -23.5206   49.1922 H   0  0
    5.1284  -23.4558   51.0026 H   0  0
   -3.2109  -34.2142   55.6233 H   0  0
   -2.5738  -33.2989   53.9955 H   0  0
   -4.6236  -33.6723   52.9837 H   0  0
   -5.2612  -34.5862   54.6122 H   0  0
   -4.0059  -31.1777   57.0121 H   0  0
  1  2  1  0
  2  3  1  0
  2  4  1  0
  2  5  1  0
  5  6  2  0
  5  7  1  0
  6  8  1  0
  6  9  1  0
  7 10  2  0
  8 11  2  0
  9 12  1  0
  9 13  1  0
  9 14  1  0
 10 11  1  0
 12 15  2  0
 12 16  1  0
 13 17  1  0
 14 18  1  0
 16 19  1  0
 17 20  1  0
 18 20  1  0
 19 21  2  0
 19 22  1  0
 20 23  1  0
 21 24  1  0
 21 25  1  0
 22 26  2  0
 23 27  2  0
 23 28  1  0
 24 29  1  0
 25 30  2  0
 26 30  1  0
 27 31  1  0
 28 32  2  0
 30 33  1  0
 31 34  2  0
 32 34  1  0
 34 35  1  0
 35 36  1  0
 35 37  1  0
 35 38  1  0
 36 39  2  0
 36 40  1  0
 37 38  1  0
  7 41  1  0
  8 42  1  0
 10 43  1  0
 11 44  1  0
 13 45  1  0
 13 46  1  0
 14 47  1  0
 14 48  1  0
 16 49  1  0
 17 50  1  0
 17 51  1  0
 18 52  1  0
 18 53  1  0
 22 54  1  0
 25 55  1  0
 26 56  1  0
 27 57  1  0
 28 58  1  0
 29 59  1  0
 29 60  1  0
 29 61  1  0
 31 62  1  0
 32 63  1  0
 33 64  1  0
 33 65  1  0
 33 66  1  0
 37 67  1  0
 37 68  1  0
 38 69  1  0
 38 70  1  0
 40 71  1  0
M  END
> <Name>
10

> <AbsoluteEnergy>
79.5157

> <Clean Energy>
144.703

> <Column 1>
10

> <ConfNumber>
71

> <Filter_Pass>
Failed

> <IC50_nM>
62.87

> <LogP>
6.32

> <MOL_NUMBER>
7

> <QSAR_Score_pIC50>
7.202

> <RelativeEnergy>
9.14601

> <SMILES>
COc1cc(C)ccc1NC(=O)C1(c2ccccc2C(F)(F)F)CCN(c2ccc(C3(C(=O)O)CC3)cc2)CC1

> <Toxicity_Alerts>
DILI, Basic N (hERG Warning)

> <Type>
Analog

> <POSE_NUMBER>
12

> <LibDockScore>
126.9464

> <HotSpots>
-6.13,-22.12,49.98,A,41,10
1.87,-25.32,48.38,A,30,22
-3.33,-32.52,56.19,P,67,40

$$$$
10
  SciTegic05082609073D

 71 75  0  0  0  0            999 V2000
   -1.8785  -24.1147   48.0055 F   0  0  0  1  0  0
   -3.1399  -24.6155   47.8140 C   0  0  0  1  0  0
   -3.0662  -25.9684   47.6458 F   0  0  0  1  0  0
   -3.6057  -24.1066   46.6198 F   0  0  0  1  0  0
   -4.0359  -24.2333   48.9833 C   0  0  0  1  0  0
   -4.1919  -24.9974   50.1980 C   0  0  0  1  0  0
   -4.7686  -23.0279   48.8409 C   0  0  0  1  0  0
   -5.1832  -24.5622   51.1210 C   0  0  0  1  0  0
   -3.3758  -26.2506   50.5697 C   0  0  0  1  0  0
   -5.6907  -22.6036   49.8019 C   0  0  0  1  0  0
   -5.9105  -23.3826   50.9351 C   0  0  0  1  0  0
   -1.8774  -26.1183   50.2789 C   0  0  0  1  0  0
   -3.3681  -26.5467   52.1272 C   0  0  0  1  0  0
   -4.0041  -27.5115   49.8615 C   0  0  0  1  0  0
   -1.3254  -26.9227   49.5628 O   0  0  0  1  0  0
   -1.1660  -25.0999   50.8921 N   0  0  0  1  0  0
   -2.6785  -27.8833   52.4601 C   0  0  0  1  0  0
   -3.4869  -28.8899   50.3616 C   0  0  0  1  0  0
    0.1422  -24.7340   50.6349 C   0  0  0  1  0  0
   -3.5604  -28.8914   51.8397 N   0  0  0  1  0  0
    0.9177  -24.1982   51.6954 C   0  0  0  1  0  0
    0.7136  -24.8900   49.3555 C   0  0  0  1  0  0
   -4.5253  -29.5374   52.5932 C   0  0  0  1  0  0
    0.3556  -24.0678   52.8986 O   0  0  0  1  0  0
    2.2603  -23.8373   51.4456 C   0  0  0  1  0  0
    2.0465  -24.5235   49.1253 C   0  0  0  1  0  0
   -5.5930  -30.2104   51.9599 C   0  0  0  1  0  0
   -4.5107  -29.4535   54.0032 C   0  0  0  1  0  0
    1.0075  -23.4139   53.9909 C   0  0  0  1  0  0
    2.8265  -23.9948   50.1673 C   0  0  0  1  0  0
   -6.7583  -30.4943   52.6875 C   0  0  0  1  0  0
   -5.6747  -29.7346   54.7291 C   0  0  0  1  0  0
    4.2451  -23.6081   49.9098 C   0  0  0  1  0  0
   -6.8372  -30.1147   54.0385 C   0  0  0  1  0  0
   -8.1721  -30.0326   54.7260 C   0  0  0  1  0  0
   -8.5592  -28.5603   54.9509 C   0  0  0  1  0  0
   -8.5378  -31.0812   55.7641 C   0  0  0  1  0  0
   -9.2611  -31.0525   54.4375 C   0  0  0  1  0  0
   -9.1254  -28.2537   55.9732 O   0  0  0  1  0  0
   -8.2593  -27.6196   54.0359 O   0  0  0  1  0  0
   -4.6080  -22.4134   47.9551 H   0  0
   -5.3827  -25.1695   52.0039 H   0  0
   -6.2343  -21.6688   49.6652 H   0  0
   -6.6481  -23.0734   51.6757 H   0  0
   -2.8466  -25.7395   52.6416 H   0  0
   -4.3951  -26.5762   52.4912 H   0  0
   -3.8160  -27.4395   48.7903 H   0  0
   -5.0859  -27.4800   49.9912 H   0  0
   -1.6824  -24.5384   51.6424 H   0  0
   -2.6405  -28.0287   53.5397 H   0  0
   -1.6880  -27.9180   52.0064 H   0  0
   -4.1161  -29.6851   49.9618 H   0  0
   -2.4535  -29.0321   50.0453 H   0  0
    0.1153  -25.2980   48.5408 H   0  0
    2.8666  -23.4308   52.2551 H   0  0
    2.4801  -24.6492   48.1332 H   0  0
   -5.5124  -30.5069   50.9141 H   0  0
   -3.5962  -29.1708   54.5246 H   0  0
    1.2496  -22.4261   53.5989 H   0  0
    1.9515  -23.9494   54.0919 H   0  0
    0.4356  -23.3773   54.9181 H   0  0
   -7.5947  -31.0045   52.2096 H   0  0
   -5.6786  -29.6594   55.8165 H   0  0
    4.8236  -24.1786   50.6364 H   0  0
    4.3048  -22.5612   50.2074 H   0  0
    4.5764  -23.7738   48.8847 H   0  0
   -9.1469  -30.6583   56.5630 H   0  0
   -7.7986  -31.8814   55.8017 H   0  0
   -8.9073  -31.8382   53.7699 H   0  0
  -10.2546  -30.6139   54.5308 H   0  0
   -8.6948  -27.9749   53.1490 H   0  0
  1  2  1  0
  2  3  1  0
  2  4  1  0
  2  5  1  0
  5  6  2  0
  5  7  1  0
  6  8  1  0
  6  9  1  0
  7 10  2  0
  8 11  2  0
  9 12  1  0
  9 13  1  0
  9 14  1  0
 10 11  1  0
 12 15  2  0
 12 16  1  0
 13 17  1  0
 14 18  1  0
 16 19  1  0
 17 20  1  0
 18 20  1  0
 19 21  2  0
 19 22  1  0
 20 23  1  0
 21 24  1  0
 21 25  1  0
 22 26  2  0
 23 27  2  0
 23 28  1  0
 24 29  1  0
 25 30  2  0
 26 30  1  0
 27 31  1  0
 28 32  2  0
 30 33  1  0
 31 34  2  0
 32 34  1  0
 34 35  1  0
 35 36  1  0
 35 37  1  0
 35 38  1  0
 36 39  2  0
 36 40  1  0
 37 38  1  0
  7 41  1  0
  8 42  1  0
 10 43  1  0
 11 44  1  0
 13 45  1  0
 13 46  1  0
 14 47  1  0
 14 48  1  0
 16 49  1  0
 17 50  1  0
 17 51  1  0
 18 52  1  0
 18 53  1  0
 22 54  1  0
 25 55  1  0
 26 56  1  0
 27 57  1  0
 28 58  1  0
 29 59  1  0
 29 60  1  0
 29 61  1  0
 31 62  1  0
 32 63  1  0
 33 64  1  0
 33 65  1  0
 33 66  1  0
 37 67  1  0
 37 68  1  0
 38 69  1  0
 38 70  1  0
 40 71  1  0
M  END
> <Name>
10

> <AbsoluteEnergy>
90.3033

> <Clean Energy>
144.703

> <Column 1>
10

> <ConfNumber>
164

> <Filter_Pass>
Failed

> <IC50_nM>
62.87

> <LogP>
6.32

> <MOL_NUMBER>
7

> <QSAR_Score_pIC50>
7.202

> <RelativeEnergy>
19.9336

> <SMILES>
COc1cc(C)ccc1NC(=O)C1(c2ccccc2C(F)(F)F)CCN(c2ccc(C3(C(=O)O)CC3)cc2)CC1

> <Toxicity_Alerts>
DILI, Basic N (hERG Warning)

> <Type>
Analog

> <POSE_NUMBER>
13

> <LibDockScore>
126.6897

> <HotSpots>
-6.53,-23.32,50.38,A,45,11
0.47,-23.32,53.78,A,67,29
4.07,-23.72,49.78,A,37,33

$$$$
10
  SciTegic05082609073D

 71 75  0  0  0  0            999 V2000
   -5.6490  -31.5591   54.3728 F   0  0  0  1  0  0
   -4.3058  -31.7150   54.1306 C   0  0  0  1  0  0
   -3.8979  -32.8570   54.7910 F   0  0  0  1  0  0
   -4.1134  -31.9577   52.8007 F   0  0  0  1  0  0
   -3.5347  -30.4939   54.6103 C   0  0  0  1  0  0
   -3.2820  -29.3015   53.8370 C   0  0  0  1  0  0
   -3.0259  -30.5638   55.9326 C   0  0  0  1  0  0
   -2.3709  -28.3533   54.3764 C   0  0  0  1  0  0
   -3.9128  -28.9734   52.4694 C   0  0  0  1  0  0
   -2.1970  -29.5667   56.4581 C   0  0  0  1  0  0
   -1.8475  -28.4737   55.6662 C   0  0  0  1  0  0
   -5.3661  -29.4342   52.3342 C   0  0  0  1  0  0
   -4.0588  -27.4166   52.2115 C   0  0  0  1  0  0
   -3.0024  -29.5701   51.3319 C   0  0  0  1  0  0
   -5.6807  -30.1361   51.3999 O   0  0  0  1  0  0
   -6.2973  -29.0192   53.2758 N   0  0  0  1  0  0
   -4.5058  -27.1005   50.7722 C   0  0  0  1  0  0
   -3.3260  -29.0796   49.8951 C   0  0  0  1  0  0
   -7.6282  -29.4012   53.3846 C   0  0  0  1  0  0
   -3.4022  -27.6027   49.9278 N   0  0  0  1  0  0
   -8.3227  -29.1668   54.6003 C   0  0  0  1  0  0
   -8.3091  -30.0004   52.3023 C   0  0  0  1  0  0
   -2.4251  -26.7469   49.4467 C   0  0  0  1  0  0
   -7.6712  -28.5871   55.6085 O   0  0  0  1  0  0
   -9.6797  -29.5536   54.7023 C   0  0  0  1  0  0
   -9.6504  -30.3799   52.4220 C   0  0  0  1  0  0
   -2.3607  -25.4024   49.8775 C   0  0  0  1  0  0
   -1.4250  -27.2320   48.5761 C   0  0  0  1  0  0
   -8.3329  -28.1102   56.7840 C   0  0  0  1  0  0
  -10.3437  -30.1622   53.6233 C   0  0  0  1  0  0
   -1.1851  -24.6642   49.6875 C   0  0  0  1  0  0
   -0.2530  -26.4893   48.3771 C   0  0  0  1  0  0
  -11.7748  -30.5678   53.7625 C   0  0  0  1  0  0
   -0.0897  -25.2628   49.0434 C   0  0  0  1  0  0
    1.2750  -24.6319   49.1280 C   0  0  0  1  0  0
    1.8954  -24.8882   50.5085 C   0  0  0  1  0  0
    1.5565  -23.3163   48.4227 C   0  0  0  1  0  0
    2.1627  -24.5958   47.8951 C   0  0  0  1  0  0
    1.1850  -24.8852   51.4943 O   0  0  0  1  0  0
    3.2028  -25.1195   50.6047 O   0  0  0  1  0  0
   -3.2880  -31.4182   56.5567 H   0  0
   -2.0704  -27.5037   53.7632 H   0  0
   -1.8267  -29.6439   57.4804 H   0  0
   -1.1673  -27.7147   56.0526 H   0  0
   -4.7898  -27.0067   52.9084 H   0  0
   -3.1011  -26.9316   52.4002 H   0  0
   -3.0837  -30.6568   51.3535 H   0  0
   -1.9632  -29.3285   51.5549 H   0  0
   -5.9476  -28.3202   54.0065 H   0  0
   -4.6180  -26.0241   50.6422 H   0  0
   -5.4280  -27.6337   50.5412 H   0  0
   -2.5344  -29.3915   49.2138 H   0  0
   -4.2833  -29.4895   49.5732 H   0  0
   -7.7835  -30.1693   51.3625 H   0  0
  -10.2191  -29.3768   55.6328 H   0  0
  -10.1595  -30.8467   51.5788 H   0  0
   -3.2240  -24.9406   50.3567 H   0  0
   -1.5640  -28.1819   48.0599 H   0  0
   -8.8680  -28.9833   57.1573 H   0  0
   -9.0866  -27.4222   56.4009 H   0  0
   -7.6813  -27.6570   57.5311 H   0  0
   -1.1211  -23.6336   50.0367 H   0  0
    0.5257  -26.8602   47.7107 H   0  0
  -12.3009  -29.6562   54.0458 H   0  0
  -11.7975  -31.2332   54.6255 H   0  0
  -12.1929  -31.0300   52.8683 H   0  0
    2.2887  -22.7190   48.9661 H   0  0
    0.7067  -22.9958   47.8200 H   0  0
    1.6356  -24.9556   47.0114 H   0  0
    3.2170  -24.6797   48.1589 H   0  0
    3.6579  -24.2868   50.1552 H   0  0
  1  2  1  0
  2  3  1  0
  2  4  1  0
  2  5  1  0
  5  6  2  0
  5  7  1  0
  6  8  1  0
  6  9  1  0
  7 10  2  0
  8 11  2  0
  9 12  1  0
  9 13  1  0
  9 14  1  0
 10 11  1  0
 12 15  2  0
 12 16  1  0
 13 17  1  0
 14 18  1  0
 16 19  1  0
 17 20  1  0
 18 20  1  0
 19 21  2  0
 19 22  1  0
 20 23  1  0
 21 24  1  0
 21 25  1  0
 22 26  2  0
 23 27  2  0
 23 28  1  0
 24 29  1  0
 25 30  2  0
 26 30  1  0
 27 31  1  0
 28 32  2  0
 30 33  1  0
 31 34  2  0
 32 34  1  0
 34 35  1  0
 35 36  1  0
 35 37  1  0
 35 38  1  0
 36 39  2  0
 36 40  1  0
 37 38  1  0
  7 41  1  0
  8 42  1  0
 10 43  1  0
 11 44  1  0
 13 45  1  0
 13 46  1  0
 14 47  1  0
 14 48  1  0
 16 49  1  0
 17 50  1  0
 17 51  1  0
 18 52  1  0
 18 53  1  0
 22 54  1  0
 25 55  1  0
 26 56  1  0
 27 57  1  0
 28 58  1  0
 29 59  1  0
 29 60  1  0
 29 61  1  0
 31 62  1  0
 32 63  1  0
 33 64  1  0
 33 65  1  0
 33 66  1  0
 37 67  1  0
 37 68  1  0
 38 69  1  0
 38 70  1  0
 40 71  1  0
M  END
> <Name>
10

> <AbsoluteEnergy>
85.7419

> <Clean Energy>
144.703

> <Column 1>
10

> <ConfNumber>
130

> <Filter_Pass>
Failed

> <IC50_nM>
62.87

> <LogP>
6.32

> <MOL_NUMBER>
7

> <QSAR_Score_pIC50>
7.202

> <RelativeEnergy>
15.3722

> <SMILES>
COc1cc(C)ccc1NC(=O)C1(c2ccccc2C(F)(F)F)CCN(c2ccc(C3(C(=O)O)CC3)cc2)CC1

> <Toxicity_Alerts>
DILI, Basic N (hERG Warning)

> <Type>
Analog

> <POSE_NUMBER>
14

> <LibDockScore>
126.6178

> <HotSpots>
-1.53,-28.72,56.38,A,78,10
-9.53,-30.12,52.78,A,62,26
1.27,-23.52,47.59,A,27,38

$$$$
10
  SciTegic05082609073D

 71 75  0  0  0  0            999 V2000
   -9.6956  -26.3581   62.1280 F   0  0  0  1  0  0
  -10.9351  -26.8591   61.8363 C   0  0  0  1  0  0
  -10.8090  -28.1282   61.3237 F   0  0  0  1  0  0
  -11.6008  -26.9594   63.0443 F   0  0  0  1  0  0
  -11.7060  -26.0041   60.8465 C   0  0  0  1  0  0
  -11.1330  -25.2645   59.7491 C   0  0  0  1  0  0
  -13.1102  -25.9542   61.0467 C   0  0  0  1  0  0
  -12.0091  -24.4265   59.0085 C   0  0  0  1  0  0
   -9.6474  -25.3101   59.3247 C   0  0  0  1  0  0
  -13.9417  -25.1553   60.2590 C   0  0  0  1  0  0
  -13.3863  -24.3774   59.2469 C   0  0  0  1  0  0
   -8.7772  -24.3814   60.1811 C   0  0  0  1  0  0
   -9.3818  -24.8369   57.8524 C   0  0  0  1  0  0
   -9.0633  -26.7595   59.3162 C   0  0  0  1  0  0
   -7.8113  -24.8380   60.7538 O   0  0  0  1  0  0
   -9.0954  -23.0364   60.3008 N   0  0  0  1  0  0
   -9.9877  -25.7394   56.7531 C   0  0  0  1  0  0
   -9.7115  -27.7061   58.2903 C   0  0  0  1  0  0
   -8.2310  -22.0434   60.7441 C   0  0  0  1  0  0
   -9.5609  -27.1589   56.9141 N   0  0  0  1  0  0
   -6.9040  -21.9159   60.2522 C   0  0  0  1  0  0
   -8.7064  -21.1241   61.7053 C   0  0  0  1  0  0
   -9.0611  -27.9170   55.8561 C   0  0  0  1  0  0
   -6.4855  -22.7461   59.2977 O   0  0  0  1  0  0
   -6.0738  -20.8970   60.7766 C   0  0  0  1  0  0
   -7.8724  -20.1147   62.2078 C   0  0  0  1  0  0
   -8.7705  -29.2914   56.0208 C   0  0  0  1  0  0
   -8.8316  -27.3320   54.5872 C   0  0  0  1  0  0
   -5.2087  -22.6190   58.6624 C   0  0  0  1  0  0
   -6.5495  -20.0012   61.7498 C   0  0  0  1  0  0
   -8.2929  -30.0616   54.9477 C   0  0  0  1  0  0
   -8.3647  -28.1041   53.5114 C   0  0  0  1  0  0
   -5.6480  -18.9385   62.2885 C   0  0  0  1  0  0
   -8.1018  -29.4735   53.6847 C   0  0  0  1  0  0
   -7.6313  -30.3092   52.5168 C   0  0  0  1  0  0
   -8.7815  -30.8898   51.6916 C   0  0  0  1  0  0
   -6.3580  -31.1300   52.6773 C   0  0  0  1  0  0
   -6.3584  -29.9075   51.7862 C   0  0  0  1  0  0
   -8.7068  -32.0284   51.2853 O   0  0  0  1  0  0
   -9.8508  -30.1280   51.4340 O   0  0  0  1  0  0
  -13.5529  -26.5576   61.8391 H   0  0
  -11.5912  -23.7967   58.2231 H   0  0
  -15.0173  -25.1409   60.4353 H   0  0
  -14.0230  -23.7319   58.6419 H   0  0
   -9.7796  -23.8291   57.7327 H   0  0
   -8.3052  -24.7727   57.6944 H   0  0
   -9.1794  -27.1908   60.3105 H   0  0
   -7.9937  -26.7049   59.1133 H   0  0
  -10.0871  -22.7398   60.0297 H   0  0
   -9.6678  -25.3791   55.7753 H   0  0
  -11.0752  -25.6854   56.8038 H   0  0
   -9.2300  -28.6825   58.3447 H   0  0
  -10.7712  -27.8181   58.5195 H   0  0
   -9.7340  -21.2001   62.0609 H   0  0
   -5.0479  -20.8052   60.4198 H   0  0
   -8.2514  -19.4173   62.9548 H   0  0
   -8.9192  -29.7593   56.9939 H   0  0
   -9.0199  -26.2680   54.4436 H   0  0
   -4.5007  -22.6389   59.4909 H   0  0
   -5.2083  -21.5996   58.2766 H   0  0
   -4.9937  -23.3657   57.8980 H   0  0
   -8.0697  -31.1184   55.0944 H   0  0
   -8.2056  -27.6395   52.5383 H   0  0
   -5.3137  -18.3811   61.4135 H   0  0
   -4.7821  -19.4734   62.6787 H   0  0
   -6.1155  -18.2989   63.0371 H   0  0
   -6.4000  -32.0510   52.0959 H   0  0
   -5.8724  -30.9309   53.6326 H   0  0
   -5.8712  -29.0595   52.2675 H   0  0
   -6.4003  -30.1791   50.7314 H   0  0
   -9.4669  -29.2721   50.9622 H   0  0
  1  2  1  0
  2  3  1  0
  2  4  1  0
  2  5  1  0
  5  6  2  0
  5  7  1  0
  6  8  1  0
  6  9  1  0
  7 10  2  0
  8 11  2  0
  9 12  1  0
  9 13  1  0
  9 14  1  0
 10 11  1  0
 12 15  2  0
 12 16  1  0
 13 17  1  0
 14 18  1  0
 16 19  1  0
 17 20  1  0
 18 20  1  0
 19 21  2  0
 19 22  1  0
 20 23  1  0
 21 24  1  0
 21 25  1  0
 22 26  2  0
 23 27  2  0
 23 28  1  0
 24 29  1  0
 25 30  2  0
 26 30  1  0
 27 31  1  0
 28 32  2  0
 30 33  1  0
 31 34  2  0
 32 34  1  0
 34 35  1  0
 35 36  1  0
 35 37  1  0
 35 38  1  0
 36 39  2  0
 36 40  1  0
 37 38  1  0
  7 41  1  0
  8 42  1  0
 10 43  1  0
 11 44  1  0
 13 45  1  0
 13 46  1  0
 14 47  1  0
 14 48  1  0
 16 49  1  0
 17 50  1  0
 17 51  1  0
 18 52  1  0
 18 53  1  0
 22 54  1  0
 25 55  1  0
 26 56  1  0
 27 57  1  0
 28 58  1  0
 29 59  1  0
 29 60  1  0
 29 61  1  0
 31 62  1  0
 32 63  1  0
 33 64  1  0
 33 65  1  0
 33 66  1  0
 37 67  1  0
 37 68  1  0
 38 69  1  0
 38 70  1  0
 40 71  1  0
M  END
> <Name>
10

> <AbsoluteEnergy>
74.3568

> <Clean Energy>
144.703

> <Column 1>
10

> <ConfNumber>
20

> <Filter_Pass>
Failed

> <IC50_nM>
62.87

> <LogP>
6.32

> <MOL_NUMBER>
7

> <QSAR_Score_pIC50>
7.202

> <RelativeEnergy>
3.98708

> <SMILES>
COc1cc(C)ccc1NC(=O)C1(c2ccccc2C(F)(F)F)CCN(c2ccc(C3(C(=O)O)CC3)cc2)CC1

> <Toxicity_Alerts>
DILI, Basic N (hERG Warning)

> <Type>
Analog

> <POSE_NUMBER>
15

> <LibDockScore>
126.1463

> <HotSpots>
-8.73,-28.12,54.38,A,70,28
-5.13,-23.32,59.38,A,83,29
-6.53,-30.72,51.78,A,56,38

$$$$
10
  SciTegic05082609073D

 71 75  0  0  0  0            999 V2000
   -5.6023  -22.6768   51.4390 F   0  0  0  1  0  0
   -5.7972  -22.5516   50.0920 C   0  0  0  1  0  0
   -7.0978  -22.8785   49.7870 F   0  0  0  1  0  0
   -5.6197  -21.2128   49.7830 F   0  0  0  1  0  0
   -4.8677  -23.4401   49.2782 C   0  0  0  1  0  0
   -4.5304  -24.8157   49.5800 C   0  0  0  1  0  0
   -4.3055  -22.8310   48.1237 C   0  0  0  1  0  0
   -3.6272  -25.4670   48.6915 C   0  0  0  1  0  0
   -5.0663  -25.6137   50.8013 C   0  0  0  1  0  0
   -3.4149  -23.5064   47.2880 C   0  0  0  1  0  0
   -3.0739  -24.8257   47.5734 C   0  0  0  1  0  0
   -4.2763  -25.3064   52.0789 C   0  0  0  1  0  0
   -6.6095  -25.4439   50.9468 C   0  0  0  1  0  0
   -4.9483  -27.1661   50.6583 C   0  0  0  1  0  0
   -4.8858  -24.8796   53.0343 O   0  0  0  1  0  0
   -2.8976  -25.5044   52.1511 N   0  0  0  1  0  0
   -7.3432  -26.2464   52.0613 C   0  0  0  1  0  0
   -5.4862  -28.0027   51.8507 C   0  0  0  1  0  0
   -2.2522  -26.2971   53.0973 C   0  0  0  1  0  0
   -6.8635  -27.6461   52.3323 N   0  0  0  1  0  0
   -0.8562  -26.1600   53.3377 C   0  0  0  1  0  0
   -2.9871  -27.2670   53.8171 C   0  0  0  1  0  0
   -7.6572  -28.5789   53.0524 C   0  0  0  1  0  0
   -0.1566  -25.2601   52.6419 O   0  0  0  1  0  0
   -0.2478  -26.9855   54.3166 C   0  0  0  1  0  0
   -2.3721  -28.0673   54.7839 C   0  0  0  1  0  0
   -7.3326  -29.9626   53.0849 C   0  0  0  1  0  0
   -8.8102  -28.1836   53.7823 C   0  0  0  1  0  0
    1.2613  -25.1053   52.7855 C   0  0  0  1  0  0
   -0.9979  -27.9309   55.0407 C   0  0  0  1  0  0
   -8.1554  -30.9056   53.7425 C   0  0  0  1  0  0
   -9.6343  -29.1249   54.4363 C   0  0  0  1  0  0
   -0.3280  -28.7798   56.0724 C   0  0  0  1  0  0
   -9.3353  -30.4988   54.3951 C   0  0  0  1  0  0
  -10.2871  -31.5233   55.0200 C   0  0  0  1  0  0
   -9.9701  -31.9883   56.4575 C   0  0  0  1  0  0
  -10.9007  -32.5636   54.0920 C   0  0  0  1  0  0
  -11.7540  -31.4320   54.6093 C   0  0  0  1  0  0
   -8.8226  -32.1779   56.7883 O   0  0  0  1  0  0
  -10.9567  -32.1944   57.3498 O   0  0  0  1  0  0
   -4.5786  -21.8035   47.8833 H   0  0
   -3.3555  -26.5041   48.8882 H   0  0
   -2.9896  -23.0049   46.4187 H   0  0
   -2.3769  -25.3603   46.9280 H   0  0
   -6.8206  -24.3854   51.0985 H   0  0
   -7.0701  -25.6953   49.9914 H   0  0
   -3.9001  -27.4217   50.5029 H   0  0
   -5.4777  -27.4718   49.7558 H   0  0
   -2.2888  -25.0093   51.4237 H   0  0
   -8.4030  -26.2932   51.8107 H   0  0
   -7.2801  -25.6797   52.9903 H   0  0
   -5.4825  -29.0549   51.5662 H   0  0
   -4.7931  -27.9038   52.6861 H   0  0
   -4.0507  -27.3927   53.6147 H   0  0
    0.8200  -26.8862   54.5119 H   0  0
   -2.9597  -28.7983   55.3394 H   0  0
   -6.4245  -30.3058   52.5893 H   0  0
   -9.0653  -27.1254   53.8388 H   0  0
    1.6571  -26.1009   52.5850 H   0  0
    1.4003  -24.9223   53.8510 H   0  0
    1.7084  -24.3341   52.1583 H   0  0
   -7.8736  -31.9586   53.7445 H   0  0
  -10.5143  -28.7824   54.9806 H   0  0
    0.1329  -28.0743   56.7638 H   0  0
    0.4797  -29.2848   55.5426 H   0  0
   -0.9982  -29.4779   56.5741 H   0  0
  -11.1068  -33.4961   54.6175 H   0  0
  -10.6008  -32.4013   53.0567 H   0  0
  -11.9090  -30.6649   53.8506 H   0  0
  -12.4138  -31.7595   55.4127 H   0  0
  -11.5897  -32.8870   56.8785 H   0  0
  1  2  1  0
  2  3  1  0
  2  4  1  0
  2  5  1  0
  5  6  2  0
  5  7  1  0
  6  8  1  0
  6  9  1  0
  7 10  2  0
  8 11  2  0
  9 12  1  0
  9 13  1  0
  9 14  1  0
 10 11  1  0
 12 15  2  0
 12 16  1  0
 13 17  1  0
 14 18  1  0
 16 19  1  0
 17 20  1  0
 18 20  1  0
 19 21  2  0
 19 22  1  0
 20 23  1  0
 21 24  1  0
 21 25  1  0
 22 26  2  0
 23 27  2  0
 23 28  1  0
 24 29  1  0
 25 30  2  0
 26 30  1  0
 27 31  1  0
 28 32  2  0
 30 33  1  0
 31 34  2  0
 32 34  1  0
 34 35  1  0
 35 36  1  0
 35 37  1  0
 35 38  1  0
 36 39  2  0
 36 40  1  0
 37 38  1  0
  7 41  1  0
  8 42  1  0
 10 43  1  0
 11 44  1  0
 13 45  1  0
 13 46  1  0
 14 47  1  0
 14 48  1  0
 16 49  1  0
 17 50  1  0
 17 51  1  0
 18 52  1  0
 18 53  1  0
 22 54  1  0
 25 55  1  0
 26 56  1  0
 27 57  1  0
 28 58  1  0
 29 59  1  0
 29 60  1  0
 29 61  1  0
 31 62  1  0
 32 63  1  0
 33 64  1  0
 33 65  1  0
 33 66  1  0
 37 67  1  0
 37 68  1  0
 38 69  1  0
 38 70  1  0
 40 71  1  0
M  END
> <Name>
10

> <AbsoluteEnergy>
77.8095

> <Clean Energy>
144.703

> <Column 1>
10

> <ConfNumber>
55

> <Filter_Pass>
Failed

> <IC50_nM>
62.87

> <LogP>
6.32

> <MOL_NUMBER>
7

> <QSAR_Score_pIC50>
7.202

> <RelativeEnergy>
7.43983

> <SMILES>
COc1cc(C)ccc1NC(=O)C1(c2ccccc2C(F)(F)F)CCN(c2ccc(C3(C(=O)O)CC3)cc2)CC1

> <Toxicity_Alerts>
DILI, Basic N (hERG Warning)

> <Type>
Analog

> <POSE_NUMBER>
16

> <LibDockScore>
125.6245

> <HotSpots>
-4.73,-22.32,50.38,A,46,3
-6.33,-26.32,51.98,A,57,17
2.27,-24.92,52.19,A,58,29

$$$$
10
  SciTegic05082609073D

 71 75  0  0  0  0            999 V2000
   -3.2979  -22.6091   48.5824 F   0  0  0  1  0  0
   -4.1776  -23.1360   47.6764 C   0  0  0  1  0  0
   -5.4376  -23.1687   48.2245 F   0  0  0  1  0  0
   -4.2061  -22.2525   46.6129 F   0  0  0  1  0  0
   -3.8019  -24.5362   47.2253 C   0  0  0  1  0  0
   -3.2049  -25.5547   48.0535 C   0  0  0  1  0  0
   -4.0797  -24.8349   45.8659 C   0  0  0  1  0  0
   -2.8166  -26.7618   47.4127 C   0  0  0  1  0  0
   -2.9522  -25.4308   49.5733 C   0  0  0  1  0  0
   -3.7271  -26.0573   45.2902 C   0  0  0  1  0  0
   -3.0795  -27.0173   46.0631 C   0  0  0  1  0  0
   -1.6237  -24.7270   49.8786 C   0  0  0  1  0  0
   -2.8413  -26.8044   50.3235 C   0  0  0  1  0  0
   -4.1301  -24.7358   50.3293 C   0  0  0  1  0  0
   -1.6125  -23.7962   50.6551 O   0  0  0  1  0  0
   -0.4510  -25.1495   49.2697 N   0  0  0  1  0  0
   -4.1385  -27.6451   50.3495 C   0  0  0  1  0  0
   -5.4598  -25.5101   50.2948 C   0  0  0  1  0  0
    0.8210  -24.6725   49.5598 C   0  0  0  1  0  0
   -5.2863  -26.8629   50.8914 N   0  0  0  1  0  0
    1.2903  -24.5214   50.8925 C   0  0  0  1  0  0
    1.6739  -24.3461   48.4823 C   0  0  0  1  0  0
   -6.1341  -27.3610   51.8797 C   0  0  0  1  0  0
    0.5036  -24.8938   51.9014 O   0  0  0  1  0  0
    2.5878  -23.9991   51.1070 C   0  0  0  1  0  0
    2.9605  -23.8378   48.7131 C   0  0  0  1  0  0
   -7.2973  -26.6537   52.2634 C   0  0  0  1  0  0
   -5.8546  -28.5896   52.5259 C   0  0  0  1  0  0
    0.8335  -24.6530   53.2736 C   0  0  0  1  0  0
    3.4205  -23.6559   50.0277 C   0  0  0  1  0  0
   -8.1660  -27.1687   53.2395 C   0  0  0  1  0  0
   -6.7286  -29.1101   53.4939 C   0  0  0  1  0  0
    4.7839  -23.1020   50.2852 C   0  0  0  1  0  0
   -7.8921  -28.4063   53.8483 C   0  0  0  1  0  0
   -8.8479  -28.9848   54.8659 C   0  0  0  1  0  0
   -9.8280  -29.9937   54.2638 C   0  0  0  1  0  0
   -9.3233  -28.0923   56.0053 C   0  0  0  1  0  0
   -8.3588  -29.2232   56.2870 C   0  0  0  1  0  0
  -10.7288  -30.4286   54.9469 O   0  0  0  1  0  0
   -9.6723  -30.3771   52.9915 O   0  0  0  1  0  0
   -4.5835  -24.0876   45.2528 H   0  0
   -2.2929  -27.5190   47.9962 H   0  0
   -3.9571  -26.2583   44.2439 H   0  0
   -2.7782  -27.9654   45.6176 H   0  0
   -2.0539  -27.3951   49.8552 H   0  0
   -2.5280  -26.6177   51.3507 H   0  0
   -4.2906  -23.7481   49.8972 H   0  0
   -3.8397  -24.5875   51.3694 H   0  0
   -0.5329  -25.9040   48.5154 H   0  0
   -3.9828  -28.5273   50.9704 H   0  0
   -4.3749  -27.9712   49.3366 H   0  0
   -6.2127  -24.9607   50.8599 H   0  0
   -5.7932  -25.6119   49.2621 H   0  0
    1.3279  -24.4910   47.4589 H   0  0
    2.9477  -23.8605   52.1265 H   0  0
    3.6044  -23.5836   47.8711 H   0  0
   -7.5227  -25.6956   51.7950 H   0  0
   -4.9489  -29.1387   52.2685 H   0  0
    0.9905  -23.5754   53.3201 H   0  0
    1.8130  -25.1161   53.3927 H   0  0
    0.1007  -25.0101   53.9972 H   0  0
   -9.0553  -26.6073   53.5260 H   0  0
   -6.5037  -30.0634   53.9721 H   0  0
    5.2803  -23.8492   50.9043 H   0  0
    4.6191  -22.2247   50.9107 H   0  0
    5.3457  -22.8698   49.3804 H   0  0
  -10.3382  -28.3437   56.3134 H   0  0
   -8.8180  -27.1266   55.9935 H   0  0
   -7.3414  -28.8580   56.4267 H   0  0
   -8.8613  -30.0752   56.7450 H   0  0
   -8.6932  -30.7528   52.9392 H   0  0
  1  2  1  0
  2  3  1  0
  2  4  1  0
  2  5  1  0
  5  6  2  0
  5  7  1  0
  6  8  1  0
  6  9  1  0
  7 10  2  0
  8 11  2  0
  9 12  1  0
  9 13  1  0
  9 14  1  0
 10 11  1  0
 12 15  2  0
 12 16  1  0
 13 17  1  0
 14 18  1  0
 16 19  1  0
 17 20  1  0
 18 20  1  0
 19 21  2  0
 19 22  1  0
 20 23  1  0
 21 24  1  0
 21 25  1  0
 22 26  2  0
 23 27  2  0
 23 28  1  0
 24 29  1  0
 25 30  2  0
 26 30  1  0
 27 31  1  0
 28 32  2  0
 30 33  1  0
 31 34  2  0
 32 34  1  0
 34 35  1  0
 35 36  1  0
 35 37  1  0
 35 38  1  0
 36 39  2  0
 36 40  1  0
 37 38  1  0
  7 41  1  0
  8 42  1  0
 10 43  1  0
 11 44  1  0
 13 45  1  0
 13 46  1  0
 14 47  1  0
 14 48  1  0
 16 49  1  0
 17 50  1  0
 17 51  1  0
 18 52  1  0
 18 53  1  0
 22 54  1  0
 25 55  1  0
 26 56  1  0
 27 57  1  0
 28 58  1  0
 29 59  1  0
 29 60  1  0
 29 61  1  0
 31 62  1  0
 32 63  1  0
 33 64  1  0
 33 65  1  0
 33 66  1  0
 37 67  1  0
 37 68  1  0
 38 69  1  0
 38 70  1  0
 40 71  1  0
M  END
> <Name>
10

> <AbsoluteEnergy>
74.3568

> <Clean Energy>
144.703

> <Column 1>
10

> <ConfNumber>
20

> <Filter_Pass>
Failed

> <IC50_nM>
62.87

> <LogP>
6.32

> <MOL_NUMBER>
7

> <QSAR_Score_pIC50>
7.202

> <RelativeEnergy>
3.98708

> <SMILES>
COc1cc(C)ccc1NC(=O)C1(c2ccccc2C(F)(F)F)CCN(c2ccc(C3(C(=O)O)CC3)cc2)CC1

> <Toxicity_Alerts>
DILI, Basic N (hERG Warning)

> <Type>
Analog

> <POSE_NUMBER>
17

> <LibDockScore>
125.0957

> <HotSpots>
-3.53,-22.32,46.59,A,20,4
-7.93,-28.32,52.38,A,59,31
4.67,-22.92,49.98,A,40,33

$$$$
10
  SciTegic05082609073D

 71 75  0  0  0  0            999 V2000
   -4.0322  -33.2205   53.4632 F   0  0  0  1  0  0
   -4.6916  -32.0661   53.8381 C   0  0  0  1  0  0
   -5.4089  -32.3334   54.9794 F   0  0  0  1  0  0
   -3.7270  -31.1494   54.1367 F   0  0  0  1  0  0
   -5.6714  -31.6313   52.7582 C   0  0  0  1  0  0
   -6.3198  -30.3471   52.6552 C   0  0  0  1  0  0
   -5.9540  -32.6193   51.7822 C   0  0  0  1  0  0
   -7.1664  -30.1312   51.5332 C   0  0  0  1  0  0
   -6.1483  -29.2025   53.6755 C   0  0  0  1  0  0
   -6.8061  -32.3720   50.7037 C   0  0  0  1  0  0
   -7.4063  -31.1225   50.5754 C   0  0  0  1  0  0
   -4.7243  -28.6175   53.6789 C   0  0  0  1  0  0
   -6.5866  -29.6799   55.1087 C   0  0  0  1  0  0
   -6.9968  -27.9046   53.3749 C   0  0  0  1  0  0
   -4.1594  -28.5261   54.7454 O   0  0  0  1  0  0
   -4.1076  -28.2026   52.5016 N   0  0  0  1  0  0
   -8.1086  -29.8055   55.3088 C   0  0  0  1  0  0
   -8.5092  -27.9918   53.6798 C   0  0  0  1  0  0
   -3.0225  -27.3347   52.3676 C   0  0  0  1  0  0
   -8.7021  -28.4731   55.0683 N   0  0  0  1  0  0
   -2.3978  -27.1934   51.0982 C   0  0  0  1  0  0
   -2.5368  -26.5745   53.4574 C   0  0  0  1  0  0
   -9.2880  -27.7134   56.0762 C   0  0  0  1  0  0
   -2.8700  -27.9060   50.0756 O   0  0  0  1  0  0
   -1.3028  -26.3058   50.9578 C   0  0  0  1  0  0
   -1.4547  -25.6986   53.3017 C   0  0  0  1  0  0
   -9.8256  -26.4413   55.7753 C   0  0  0  1  0  0
   -9.3417  -28.1725   57.4129 C   0  0  0  1  0  0
   -2.2521  -27.9097   48.7845 C   0  0  0  1  0  0
   -0.8322  -25.5582   52.0520 C   0  0  0  1  0  0
  -10.3669  -25.6327   56.7878 C   0  0  0  1  0  0
   -9.8721  -27.3575   58.4266 C   0  0  0  1  0  0
    0.3178  -24.6172   51.8987 C   0  0  0  1  0  0
  -10.3853  -26.0840   58.1202 C   0  0  0  1  0  0
  -10.9550  -25.2208   59.2223 C   0  0  0  1  0  0
  -12.4536  -25.4058   59.3867 C   0  0  0  1  0  0
  -10.3432  -23.8634   59.5389 C   0  0  0  1  0  0
  -10.1337  -25.0194   60.4862 C   0  0  0  1  0  0
  -13.2036  -24.5196   59.0467 O   0  0  0  1  0  0
  -12.8942  -26.5516   59.9005 O   0  0  0  1  0  0
   -5.4922  -33.6022   51.8762 H   0  0
   -7.6453  -29.1592   51.4152 H   0  0
   -6.9999  -33.1520   49.9674 H   0  0
   -8.0624  -30.9166   49.7297 H   0  0
   -6.1276  -30.6476   55.3110 H   0  0
   -6.1950  -28.9800   55.8469 H   0  0
   -6.8726  -27.6446   52.3237 H   0  0
   -6.5778  -27.0770   53.9473 H   0  0
   -4.5131  -28.5952   51.5926 H   0  0
   -8.3212  -30.1237   56.3294 H   0  0
   -8.5151  -30.5232   54.5962 H   0  0
   -8.9597  -27.0052   53.5714 H   0  0
   -8.9818  -28.6868   52.9857 H   0  0
   -3.0120  -26.6719   54.4335 H   0  0
   -0.8178  -26.2007   49.9873 H   0  0
   -1.0947  -25.1237   54.1549 H   0  0
   -9.8200  -26.0838   54.7456 H   0  0
   -8.9685  -29.1668   57.6584 H   0  0
   -1.2236  -28.2091   48.9859 H   0  0
   -2.2216  -26.8567   48.5044 H   0  0
   -2.7410  -28.5362   48.0384 H   0  0
  -10.7741  -24.6523   56.5406 H   0  0
   -9.8861  -27.7139   59.4566 H   0  0
    0.0153  -23.9406   51.0995 H   0  0
    1.1264  -25.2326   51.5043 H   0  0
    0.5948  -24.0925   52.8131 H   0  0
  -11.0913  -23.1655   59.9149 H   0  0
   -9.4572  -23.6738   58.9330 H   0  0
   -9.1352  -25.4452   60.3867 H   0  0
  -10.7700  -24.9380   61.3674 H   0  0
  -12.4180  -26.6420   60.8319 H   0  0
  1  2  1  0
  2  3  1  0
  2  4  1  0
  2  5  1  0
  5  6  2  0
  5  7  1  0
  6  8  1  0
  6  9  1  0
  7 10  2  0
  8 11  2  0
  9 12  1  0
  9 13  1  0
  9 14  1  0
 10 11  1  0
 12 15  2  0
 12 16  1  0
 13 17  1  0
 14 18  1  0
 16 19  1  0
 17 20  1  0
 18 20  1  0
 19 21  2  0
 19 22  1  0
 20 23  1  0
 21 24  1  0
 21 25  1  0
 22 26  2  0
 23 27  2  0
 23 28  1  0
 24 29  1  0
 25 30  2  0
 26 30  1  0
 27 31  1  0
 28 32  2  0
 30 33  1  0
 31 34  2  0
 32 34  1  0
 34 35  1  0
 35 36  1  0
 35 37  1  0
 35 38  1  0
 36 39  2  0
 36 40  1  0
 37 38  1  0
  7 41  1  0
  8 42  1  0
 10 43  1  0
 11 44  1  0
 13 45  1  0
 13 46  1  0
 14 47  1  0
 14 48  1  0
 16 49  1  0
 17 50  1  0
 17 51  1  0
 18 52  1  0
 18 53  1  0
 22 54  1  0
 25 55  1  0
 26 56  1  0
 27 57  1  0
 28 58  1  0
 29 59  1  0
 29 60  1  0
 29 61  1  0
 31 62  1  0
 32 63  1  0
 33 64  1  0
 33 65  1  0
 33 66  1  0
 37 67  1  0
 37 68  1  0
 38 69  1  0
 38 70  1  0
 40 71  1  0
M  END
> <Name>
10

> <AbsoluteEnergy>
74.1546

> <Clean Energy>
144.703

> <Column 1>
10

> <ConfNumber>
18

> <Filter_Pass>
Failed

> <IC50_nM>
62.87

> <LogP>
6.32

> <MOL_NUMBER>
7

> <QSAR_Score_pIC50>
7.202

> <RelativeEnergy>
3.78492

> <SMILES>
COc1cc(C)ccc1NC(=O)C1(c2ccccc2C(F)(F)F)CCN(c2ccc(C3(C(=O)O)CC3)cc2)CC1

> <Toxicity_Alerts>
DILI, Basic N (hERG Warning)

> <Type>
Analog

> <POSE_NUMBER>
18

> <LibDockScore>
124.461

> <HotSpots>
-4.33,-32.92,55.19,A,75,3
-7.13,-31.92,50.98,A,49,11
-1.93,-29.12,49.19,A,34,29

$$$$
10
  SciTegic05082609073D

 71 75  0  0  0  0            999 V2000
   -2.3612  -23.1248   48.0010 F   0  0  0  1  0  0
   -3.3412  -24.0294   47.6716 C   0  0  0  1  0  0
   -3.9441  -23.5576   46.5229 F   0  0  0  1  0  0
   -2.7467  -25.2128   47.3289 F   0  0  0  1  0  0
   -4.3233  -24.1851   48.8308 C   0  0  0  1  0  0
   -4.1074  -25.0034   50.0037 C   0  0  0  1  0  0
   -5.5368  -23.4587   48.7299 C   0  0  0  1  0  0
   -5.1475  -25.0600   50.9697 C   0  0  0  1  0  0
   -2.8341  -25.8312   50.2664 C   0  0  0  1  0  0
   -6.5365  -23.5441   49.7070 C   0  0  0  1  0  0
   -6.3446  -24.3536   50.8256 C   0  0  0  1  0  0
   -1.5793  -24.9783   50.0926 C   0  0  0  1  0  0
   -2.5998  -26.2610   51.7851 C   0  0  0  1  0  0
   -2.9508  -27.1585   49.4269 C   0  0  0  1  0  0
   -1.5731  -23.8996   50.6495 O   0  0  0  1  0  0
   -0.4691  -25.3929   49.3747 N   0  0  0  1  0  0
   -2.7285  -27.7699   52.0495 C   0  0  0  1  0  0
   -4.0229  -28.1602   49.9658 C   0  0  0  1  0  0
    0.7821  -24.8365   49.5824 C   0  0  0  1  0  0
   -4.0029  -28.2254   51.4571 N   0  0  0  1  0  0
    1.2642  -24.6584   50.9066 C   0  0  0  1  0  0
    1.5760  -24.4528   48.4811 C   0  0  0  1  0  0
   -5.1077  -28.5661   52.2366 C   0  0  0  1  0  0
    0.5133  -25.0735   51.9292 O   0  0  0  1  0  0
    2.5267  -24.0547   51.0946 C   0  0  0  1  0  0
    2.8361  -23.8669   48.6904 C   0  0  0  1  0  0
   -6.4327  -28.4655   51.7501 C   0  0  0  1  0  0
   -4.9097  -29.0039   53.5678 C   0  0  0  1  0  0
    0.8516  -24.8116   53.2939 C   0  0  0  1  0  0
    3.3137  -23.6584   49.9975 C   0  0  0  1  0  0
   -7.5250  -28.7340   52.5970 C   0  0  0  1  0  0
   -5.9956  -29.2886   54.4043 C   0  0  0  1  0  0
    4.6478  -23.0240   50.2275 C   0  0  0  1  0  0
   -7.3068  -29.1123   53.9340 C   0  0  0  1  0  0
   -8.4666  -29.3111   54.8825 C   0  0  0  1  0  0
   -8.6801  -28.1297   55.8343 C   0  0  0  1  0  0
   -9.6721  -30.1108   54.4151 C   0  0  0  1  0  0
   -8.7220  -30.7074   55.4265 C   0  0  0  1  0  0
   -8.1486  -28.1351   56.9253 O   0  0  0  1  0  0
   -9.4576  -27.1195   55.4382 O   0  0  0  1  0  0
   -5.6965  -22.8142   47.8655 H   0  0
   -5.0065  -25.6777   51.8567 H   0  0
   -7.4618  -22.9793   49.5932 H   0  0
   -7.1238  -24.4351   51.5834 H   0  0
   -1.6054  -25.9369   52.0922 H   0  0
   -3.3173  -25.7347   52.4146 H   0  0
   -3.1966  -26.9025   48.3963 H   0  0
   -1.9808  -27.6555   49.4160 H   0  0
   -0.5813  -26.1632   48.6405 H   0  0
   -2.7358  -27.9561   53.1234 H   0  0
   -1.8970  -28.2969   51.5815 H   0  0
   -5.0112  -27.8411   49.6349 H   0  0
   -3.8237  -29.1528   49.5618 H   0  0
    1.2114  -24.6111   47.4662 H   0  0
    2.8979  -23.8929   52.1066 H   0  0
    3.4462  -23.5727   47.8364 H   0  0
   -6.6088  -28.1784   50.7134 H   0  0
   -3.8950  -29.1214   53.9481 H   0  0
    0.9487  -23.7268   53.3370 H   0  0
    1.8571  -25.2192   53.3982 H   0  0
    0.1516  -25.2075   54.0297 H   0  0
   -8.5425  -28.6485   52.2155 H   0  0
   -5.8234  -29.6466   55.4193 H   0  0
    5.2018  -23.7420   50.8321 H   0  0
    4.4447  -22.1601   50.8604 H   0  0
    5.1743  -22.7556   49.3116 H   0  0
   -9.5145  -30.5281   53.4206 H   0  0
  -10.5910  -29.7599   54.8847 H   0  0
   -9.1356  -30.6749   56.4345 H   0  0
   -8.0582  -31.4418   54.9703 H   0  0
  -10.3807  -27.5593   55.1996 H   0  0
  1  2  1  0
  2  3  1  0
  2  4  1  0
  2  5  1  0
  5  6  2  0
  5  7  1  0
  6  8  1  0
  6  9  1  0
  7 10  2  0
  8 11  2  0
  9 12  1  0
  9 13  1  0
  9 14  1  0
 10 11  1  0
 12 15  2  0
 12 16  1  0
 13 17  1  0
 14 18  1  0
 16 19  1  0
 17 20  1  0
 18 20  1  0
 19 21  2  0
 19 22  1  0
 20 23  1  0
 21 24  1  0
 21 25  1  0
 22 26  2  0
 23 27  2  0
 23 28  1  0
 24 29  1  0
 25 30  2  0
 26 30  1  0
 27 31  1  0
 28 32  2  0
 30 33  1  0
 31 34  2  0
 32 34  1  0
 34 35  1  0
 35 36  1  0
 35 37  1  0
 35 38  1  0
 36 39  2  0
 36 40  1  0
 37 38  1  0
  7 41  1  0
  8 42  1  0
 10 43  1  0
 11 44  1  0
 13 45  1  0
 13 46  1  0
 14 47  1  0
 14 48  1  0
 16 49  1  0
 17 50  1  0
 17 51  1  0
 18 52  1  0
 18 53  1  0
 22 54  1  0
 25 55  1  0
 26 56  1  0
 27 57  1  0
 28 58  1  0
 29 59  1  0
 29 60  1  0
 29 61  1  0
 31 62  1  0
 32 63  1  0
 33 64  1  0
 33 65  1  0
 33 66  1  0
 37 67  1  0
 37 68  1  0
 38 69  1  0
 38 70  1  0
 40 71  1  0
M  END
> <Name>
10

> <AbsoluteEnergy>
86.1177

> <Clean Energy>
144.703

> <Column 1>
10

> <ConfNumber>
135

> <Filter_Pass>
Failed

> <IC50_nM>
62.87

> <LogP>
6.32

> <MOL_NUMBER>
7

> <QSAR_Score_pIC50>
7.202

> <RelativeEnergy>
15.748

> <SMILES>
COc1cc(C)ccc1NC(=O)C1(c2ccccc2C(F)(F)F)CCN(c2ccc(C3(C(=O)O)CC3)cc2)CC1

> <Toxicity_Alerts>
DILI, Basic N (hERG Warning)

> <Type>
Analog

> <POSE_NUMBER>
19

> <LibDockScore>
123.8448

> <HotSpots>
-4.93,-23.52,47.59,A,26,3
1.67,-24.32,50.98,A,50,25
-6.53,-30.72,51.78,A,56,27

$$$$
10
  SciTegic05082609073D

 71 75  0  0  0  0            999 V2000
   -6.9239  -23.2712   50.6139 F   0  0  0  1  0  0
   -5.6354  -22.8602   50.3714 C   0  0  0  1  0  0
   -5.6971  -21.6131   49.7848 F   0  0  0  1  0  0
   -4.9889  -22.6833   51.5590 F   0  0  0  1  0  0
   -4.9719  -23.8703   49.4477 C   0  0  0  1  0  0
   -4.3674  -25.1214   49.8442 C   0  0  0  1  0  0
   -4.9697  -23.5162   48.0745 C   0  0  0  1  0  0
   -3.7514  -25.8977   48.8243 C   0  0  0  1  0  0
   -4.3292  -25.6620   51.2907 C   0  0  0  1  0  0
   -4.3634  -24.3169   47.1033 C   0  0  0  1  0  0
   -3.7473  -25.5066   47.4819 C   0  0  0  1  0  0
   -3.0991  -25.1465   52.0503 C   0  0  0  1  0  0
   -4.1814  -27.2269   51.4102 C   0  0  0  1  0  0
   -5.6499  -25.3344   52.0672 C   0  0  0  1  0  0
   -3.0814  -25.2193   53.2603 O   0  0  0  1  0  0
   -2.0200  -24.6029   51.3663 N   0  0  0  1  0  0
   -5.4235  -28.0686   51.0224 C   0  0  0  1  0  0
   -6.8711  -26.1300   51.5805 C   0  0  0  1  0  0
   -0.7320  -24.4849   51.8663 C   0  0  0  1  0  0
   -6.6143  -27.5804   51.7620 N   0  0  0  1  0  0
    0.4410  -24.7772   51.0963 C   0  0  0  1  0  0
   -0.5846  -24.0755   53.2118 C   0  0  0  1  0  0
   -7.3830  -28.3947   52.5923 C   0  0  0  1  0  0
    0.5034  -25.1164   49.8069 O   0  0  0  1  0  0
    1.6968  -24.6954   51.7300 C   0  0  0  1  0  0
    0.6788  -23.9818   53.8085 C   0  0  0  1  0  0
   -7.1957  -29.7964   52.6245 C   0  0  0  1  0  0
   -8.3673  -27.8287   53.4335 C   0  0  0  1  0  0
   -0.6124  -25.1603   48.9126 C   0  0  0  1  0  0
    1.8283  -24.3016   53.0716 C   0  0  0  1  0  0
   -7.9586  -30.6035   53.4878 C   0  0  0  1  0  0
   -9.1298  -28.6351   54.2936 C   0  0  0  1  0  0
    3.1829  -24.2249   53.6976 C   0  0  0  1  0  0
   -8.9218  -30.0248   54.3335 C   0  0  0  1  0  0
   -9.7276  -30.8837   55.2812 C   0  0  0  1  0  0
  -11.0195  -31.4147   54.6759 C   0  0  0  1  0  0
   -9.7441  -30.5212   56.7589 C   0  0  0  1  0  0
   -8.9979  -31.7488   56.2991 C   0  0  0  1  0  0
  -11.6519  -30.7062   53.9255 O   0  0  0  1  0  0
  -11.4305  -32.6427   54.9920 O   0  0  0  1  0  0
   -5.4562  -22.5905   47.7672 H   0  0
   -3.2640  -26.8330   49.0995 H   0  0
   -4.3727  -24.0124   46.0568 H   0  0
   -3.2623  -26.1324   46.7327 H   0  0
   -3.3443  -27.5432   50.7878 H   0  0
   -3.9080  -27.4715   52.4366 H   0  0
   -5.8629  -24.2700   51.9688 H   0  0
   -5.4963  -25.5405   53.1265 H   0  0
   -2.1965  -24.2462   50.3731 H   0  0
   -5.2463  -29.1146   51.2725 H   0  0
   -5.6016  -27.9796   49.9507 H   0  0
   -7.7482  -25.8410   52.1596 H   0  0
   -7.0455  -25.9214   50.5250 H   0  0
   -1.4712  -23.8282   53.7956 H   0  0
    2.5929  -24.9452   51.1620 H   0  0
    0.7688  -23.6602   54.8461 H   0  0
   -6.4522  -30.2561   51.9733 H   0  0
   -8.5368  -26.7521   53.4144 H   0  0
   -1.0336  -24.1586   48.9981 H   0  0
   -1.3088  -25.8254   49.4232 H   0  0
   -0.3964  -25.4577   47.8864 H   0  0
   -7.8025  -31.6822   53.5014 H   0  0
   -9.8867  -28.1814   54.9334 H   0  0
    3.7497  -23.5448   53.0618 H   0  0
    3.6111  -25.2187   53.5667 H   0  0
    3.1717  -23.9093   54.7408 H   0  0
  -10.6959  -30.7791   57.2234 H   0  0
   -9.0663  -29.6954   56.9750 H   0  0
   -7.9217  -31.5785   56.2702 H   0  0
   -9.5518  -32.6619   56.5170 H   0  0
  -11.4979  -32.6451   56.0398 H   0  0
  1  2  1  0
  2  3  1  0
  2  4  1  0
  2  5  1  0
  5  6  2  0
  5  7  1  0
  6  8  1  0
  6  9  1  0
  7 10  2  0
  8 11  2  0
  9 12  1  0
  9 13  1  0
  9 14  1  0
 10 11  1  0
 12 15  2  0
 12 16  1  0
 13 17  1  0
 14 18  1  0
 16 19  1  0
 17 20  1  0
 18 20  1  0
 19 21  2  0
 19 22  1  0
 20 23  1  0
 21 24  1  0
 21 25  1  0
 22 26  2  0
 23 27  2  0
 23 28  1  0
 24 29  1  0
 25 30  2  0
 26 30  1  0
 27 31  1  0
 28 32  2  0
 30 33  1  0
 31 34  2  0
 32 34  1  0
 34 35  1  0
 35 36  1  0
 35 37  1  0
 35 38  1  0
 36 39  2  0
 36 40  1  0
 37 38  1  0
  7 41  1  0
  8 42  1  0
 10 43  1  0
 11 44  1  0
 13 45  1  0
 13 46  1  0
 14 47  1  0
 14 48  1  0
 16 49  1  0
 17 50  1  0
 17 51  1  0
 18 52  1  0
 18 53  1  0
 22 54  1  0
 25 55  1  0
 26 56  1  0
 27 57  1  0
 28 58  1  0
 29 59  1  0
 29 60  1  0
 29 61  1  0
 31 62  1  0
 32 63  1  0
 33 64  1  0
 33 65  1  0
 33 66  1  0
 37 67  1  0
 37 68  1  0
 38 69  1  0
 38 70  1  0
 40 71  1  0
M  END
> <Name>
10

> <AbsoluteEnergy>
76.6834

> <Clean Energy>
144.703

> <Column 1>
10

> <ConfNumber>
43

> <Filter_Pass>
Failed

> <IC50_nM>
62.87

> <LogP>
6.32

> <MOL_NUMBER>
7

> <QSAR_Score_pIC50>
7.202

> <RelativeEnergy>
6.31373

> <SMILES>
COc1cc(C)ccc1NC(=O)C1(c2ccccc2C(F)(F)F)CCN(c2ccc(C3(C(=O)O)CC3)cc2)CC1

> <Toxicity_Alerts>
DILI, Basic N (hERG Warning)

> <Type>
Analog

> <POSE_NUMBER>
20

> <LibDockScore>
121.5514

> <HotSpots>
-2.93,-26.32,45.98,A,15,7
0.87,-24.32,52.78,A,63,26
-6.53,-30.72,51.78,A,56,27

$$$$
10
  SciTegic05082609073D

 71 75  0  0  0  0            999 V2000
   -5.5887  -29.9107   54.6979 F   0  0  0  1  0  0
   -4.2712  -30.2914   54.6949 C   0  0  0  1  0  0
   -4.0141  -30.7500   55.9711 F   0  0  0  1  0  0
   -4.1427  -31.3600   53.8411 F   0  0  0  1  0  0
   -3.2435  -29.2300   54.2897 C   0  0  0  1  0  0
   -3.4104  -28.1628   53.3273 C   0  0  0  1  0  0
   -1.9944  -29.3441   54.9518 C   0  0  0  1  0  0
   -2.3472  -27.2290   53.1833 C   0  0  0  1  0  0
   -4.6568  -27.9489   52.4557 C   0  0  0  1  0  0
   -0.9567  -28.4297   54.7500 C   0  0  0  1  0  0
   -1.1382  -27.3624   53.8714 C   0  0  0  1  0  0
   -4.3488  -27.2580   51.1026 C   0  0  0  1  0  0
   -5.2285  -29.2992   51.8998 C   0  0  0  1  0  0
   -5.7073  -27.1487   53.3152 C   0  0  0  1  0  0
   -3.5081  -27.7544   50.3835 O   0  0  0  1  0  0
   -5.0258  -26.1278   50.6758 N   0  0  0  1  0  0
   -6.6454  -29.1532   51.3297 C   0  0  0  1  0  0
   -7.1888  -27.2475   52.8733 C   0  0  0  1  0  0
   -4.5087  -25.1474   49.8483 C   0  0  0  1  0  0
   -7.5345  -28.6045   52.3837 N   0  0  0  1  0  0
   -3.1336  -24.8017   49.8049 C   0  0  0  1  0  0
   -5.4286  -24.4852   49.0100 C   0  0  0  1  0  0
   -8.5934  -29.3356   52.8904 C   0  0  0  1  0  0
   -2.2880  -25.4122   50.6349 O   0  0  0  1  0  0
   -2.7152  -23.8093   48.8845 C   0  0  0  1  0  0
   -4.9986  -23.5060   48.1088 C   0  0  0  1  0  0
   -9.1904  -28.9838   54.1175 C   0  0  0  1  0  0
   -9.0782  -30.4550   52.1849 C   0  0  0  1  0  0
   -0.8983  -25.0795   50.7059 C   0  0  0  1  0  0
   -3.6378  -23.1620   48.0393 C   0  0  0  1  0  0
  -10.2100  -29.7792   54.6600 C   0  0  0  1  0  0
  -10.0947  -31.2550   52.7304 C   0  0  0  1  0  0
   -3.1647  -22.1196   47.0779 C   0  0  0  1  0  0
  -10.6458  -30.9344   53.9847 C   0  0  0  1  0  0
  -11.6878  -31.8319   54.6201 C   0  0  0  1  0  0
  -11.1901  -33.2682   54.8406 C   0  0  0  1  0  0
  -13.1543  -31.5926   54.2845 C   0  0  0  1  0  0
  -12.6275  -31.2287   55.6527 C   0  0  0  1  0  0
  -10.6621  -33.5546   55.8942 O   0  0  0  1  0  0
  -11.3426  -34.1914   53.8837 O   0  0  0  1  0  0
   -1.8383  -30.1734   55.6417 H   0  0
   -2.4800  -26.3798   52.5129 H   0  0
   -0.0102  -28.5504   55.2769 H   0  0
   -0.3403  -26.6350   53.7218 H   0  0
   -4.5677  -29.6690   51.1158 H   0  0
   -5.2442  -30.0368   52.7021 H   0  0
   -5.4208  -26.0970   53.3194 H   0  0
   -5.6351  -27.4862   54.3491 H   0  0
   -6.0330  -26.0025   51.0144 H   0  0
   -7.0147  -30.1288   51.0136 H   0  0
   -6.6275  -28.4732   50.4780 H   0  0
   -7.8311  -27.0000   53.7185 H   0  0
   -7.3747  -26.5249   52.0787 H   0  0
   -6.4871  -24.7393   49.0649 H   0  0
   -1.6600  -23.5417   48.8293 H   0  0
   -5.7196  -23.0091   47.4597 H   0  0
   -8.8586  -28.0905   54.6467 H   0  0
   -8.6609  -30.7015   51.2086 H   0  0
   -0.8943  -24.0093   50.9127 H   0  0
   -0.5461  -25.2009   49.6815 H   0  0
   -0.3198  -25.6561   51.4276 H   0  0
  -10.6673  -29.5013   55.6096 H   0  0
  -10.4571  -32.1246   52.1822 H   0  0
   -2.4046  -22.6159   46.4745 H   0  0
   -2.6533  -21.3793   47.6931 H   0  0
   -3.9586  -21.6825   46.4723 H   0  0
  -13.7261  -32.5203   54.3073 H   0  0
  -13.2811  -30.7119   53.6548 H   0  0
  -12.4759  -30.1539   55.7524 H   0  0
  -12.9194  -31.9622   56.4043 H   0  0
  -10.8758  -33.7743   53.0407 H   0  0
  1  2  1  0
  2  3  1  0
  2  4  1  0
  2  5  1  0
  5  6  2  0
  5  7  1  0
  6  8  1  0
  6  9  1  0
  7 10  2  0
  8 11  2  0
  9 12  1  0
  9 13  1  0
  9 14  1  0
 10 11  1  0
 12 15  2  0
 12 16  1  0
 13 17  1  0
 14 18  1  0
 16 19  1  0
 17 20  1  0
 18 20  1  0
 19 21  2  0
 19 22  1  0
 20 23  1  0
 21 24  1  0
 21 25  1  0
 22 26  2  0
 23 27  2  0
 23 28  1  0
 24 29  1  0
 25 30  2  0
 26 30  1  0
 27 31  1  0
 28 32  2  0
 30 33  1  0
 31 34  2  0
 32 34  1  0
 34 35  1  0
 35 36  1  0
 35 37  1  0
 35 38  1  0
 36 39  2  0
 36 40  1  0
 37 38  1  0
  7 41  1  0
  8 42  1  0
 10 43  1  0
 11 44  1  0
 13 45  1  0
 13 46  1  0
 14 47  1  0
 14 48  1  0
 16 49  1  0
 17 50  1  0
 17 51  1  0
 18 52  1  0
 18 53  1  0
 22 54  1  0
 25 55  1  0
 26 56  1  0
 27 57  1  0
 28 58  1  0
 29 59  1  0
 29 60  1  0
 29 61  1  0
 31 62  1  0
 32 63  1  0
 33 64  1  0
 33 65  1  0
 33 66  1  0
 37 67  1  0
 37 68  1  0
 38 69  1  0
 38 70  1  0
 40 71  1  0
M  END
> <Name>
10

> <AbsoluteEnergy>
86.1273

> <Clean Energy>
144.703

> <Column 1>
10

> <ConfNumber>
136

> <Filter_Pass>
Failed

> <IC50_nM>
62.87

> <LogP>
6.32

> <MOL_NUMBER>
7

> <QSAR_Score_pIC50>
7.202

> <RelativeEnergy>
15.7576

> <SMILES>
COc1cc(C)ccc1NC(=O)C1(c2ccccc2C(F)(F)F)CCN(c2ccc(C3(C(=O)O)CC3)cc2)CC1

> <Toxicity_Alerts>
DILI, Basic N (hERG Warning)

> <Type>
Analog

> <POSE_NUMBER>
21

> <LibDockScore>
119.4977

> <HotSpots>
-0.93,-28.12,54.98,A,74,11
-6.53,-23.32,50.38,A,45,26
-9.53,-30.12,52.78,A,62,28

$$$$
10
  SciTegic05082609073D

 71 75  0  0  0  0            999 V2000
    1.6277  -24.1196   53.0825 F   0  0  0  1  0  0
    0.5697  -24.5669   52.3191 C   0  0  0  1  0  0
    0.2912  -25.8247   52.7721 F   0  0  0  1  0  0
   -0.4694  -23.7237   52.5845 F   0  0  0  1  0  0
    0.8738  -24.6193   50.8311 C   0  0  0  1  0  0
   -0.0203  -25.0862   49.7885 C   0  0  0  1  0  0
    2.1747  -24.1776   50.4601 C   0  0  0  1  0  0
    0.5193  -25.1540   48.4697 C   0  0  0  1  0  0
   -1.5029  -25.5457   49.8786 C   0  0  0  1  0  0
    2.6352  -24.2235   49.1440 C   0  0  0  1  0  0
    1.8093  -24.7257   48.1455 C   0  0  0  1  0  0
   -2.3023  -24.9080   48.7143 C   0  0  0  1  0  0
   -1.5859  -27.0953   49.6933 C   0  0  0  1  0  0
   -2.3875  -25.1702   51.1234 C   0  0  0  1  0  0
   -3.0631  -25.5977   48.0677 O   0  0  0  1  0  0
   -2.1515  -23.5602   48.4007 N   0  0  0  1  0  0
   -1.3248  -27.9148   50.9588 C   0  0  0  1  0  0
   -2.4695  -26.1145   52.3517 C   0  0  0  1  0  0
   -2.9987  -22.8396   47.5622 C   0  0  0  1  0  0
   -2.3049  -27.5632   52.0297 N   0  0  0  1  0  0
   -4.4156  -22.9527   47.6296 C   0  0  0  1  0  0
   -2.4207  -21.9533   46.6227 C   0  0  0  1  0  0
   -3.0408  -28.5290   52.7149 C   0  0  0  1  0  0
   -4.9592  -23.7284   48.5717 O   0  0  0  1  0  0
   -5.2088  -22.2291   46.7097 C   0  0  0  1  0  0
   -3.2251  -21.2323   45.7267 C   0  0  0  1  0  0
   -3.3340  -28.3546   54.0865 C   0  0  0  1  0  0
   -3.5153  -29.6934   52.0670 C   0  0  0  1  0  0
   -6.3258  -23.6134   48.9789 C   0  0  0  1  0  0
   -4.6211  -21.3743   45.7574 C   0  0  0  1  0  0
   -4.0999  -29.3030   54.7848 C   0  0  0  1  0  0
   -4.2730  -30.6453   52.7707 C   0  0  0  1  0  0
   -5.4686  -20.6173   44.7854 C   0  0  0  1  0  0
   -4.5799  -30.4504   54.1285 C   0  0  0  1  0  0
   -5.4286  -31.4589   54.8784 C   0  0  0  1  0  0
   -6.9253  -31.1376   54.8760 C   0  0  0  1  0  0
   -4.8292  -32.1284   56.1062 C   0  0  0  1  0  0
   -5.0348  -32.9290   54.8406 C   0  0  0  1  0  0
   -7.4251  -30.6118   53.9038 O   0  0  0  1  0  0
   -7.6568  -31.4488   55.9500 O   0  0  0  1  0  0
    2.8366  -23.7885   51.2338 H   0  0
   -0.1062  -25.5604   47.6749 H   0  0
    3.6363  -23.8678   48.9004 H   0  0
    2.1652  -24.7851   47.1169 H   0  0
   -0.8671  -27.3957   48.9309 H   0  0
   -2.5756  -27.3490   49.3134 H   0  0
   -2.0608  -24.1934   51.4800 H   0  0
   -3.4046  -25.0008   50.7698 H   0  0
   -1.3241  -23.0395   48.8357 H   0  0
   -1.4128  -28.9759   50.7255 H   0  0
   -0.3148  -27.7149   51.3167 H   0  0
   -3.4336  -25.9736   52.8404 H   0  0
   -1.6996  -25.8269   53.0677 H   0  0
   -1.3382  -21.8291   46.5945 H   0  0
   -6.2933  -22.3347   46.7381 H   0  0
   -2.7638  -20.5593   45.0040 H   0  0
   -2.9613  -27.4735   54.6089 H   0  0
   -3.2913  -29.8539   51.0124 H   0  0
   -6.8860  -23.7294   48.0511 H   0  0
   -6.4241  -22.5686   49.2734 H   0  0
   -6.6391  -24.3087   49.7577 H   0  0
   -4.3232  -29.1487   55.8405 H   0  0
   -4.6253  -31.5413   52.2597 H   0  0
   -6.1607  -20.0486   45.4064 H   0  0
   -6.0543  -21.3820   44.2752 H   0  0
   -4.9068  -19.9874   44.0957 H   0  0
   -5.5917  -32.3528   56.8520 H   0  0
   -3.7836  -31.8520   56.2416 H   0  0
   -4.0984  -33.0786   54.3031 H   0  0
   -5.9074  -33.5782   54.9128 H   0  0
   -7.1863  -30.9607   56.7518 H   0  0
  1  2  1  0
  2  3  1  0
  2  4  1  0
  2  5  1  0
  5  6  2  0
  5  7  1  0
  6  8  1  0
  6  9  1  0
  7 10  2  0
  8 11  2  0
  9 12  1  0
  9 13  1  0
  9 14  1  0
 10 11  1  0
 12 15  2  0
 12 16  1  0
 13 17  1  0
 14 18  1  0
 16 19  1  0
 17 20  1  0
 18 20  1  0
 19 21  2  0
 19 22  1  0
 20 23  1  0
 21 24  1  0
 21 25  1  0
 22 26  2  0
 23 27  2  0
 23 28  1  0
 24 29  1  0
 25 30  2  0
 26 30  1  0
 27 31  1  0
 28 32  2  0
 30 33  1  0
 31 34  2  0
 32 34  1  0
 34 35  1  0
 35 36  1  0
 35 37  1  0
 35 38  1  0
 36 39  2  0
 36 40  1  0
 37 38  1  0
  7 41  1  0
  8 42  1  0
 10 43  1  0
 11 44  1  0
 13 45  1  0
 13 46  1  0
 14 47  1  0
 14 48  1  0
 16 49  1  0
 17 50  1  0
 17 51  1  0
 18 52  1  0
 18 53  1  0
 22 54  1  0
 25 55  1  0
 26 56  1  0
 27 57  1  0
 28 58  1  0
 29 59  1  0
 29 60  1  0
 29 61  1  0
 31 62  1  0
 32 63  1  0
 33 64  1  0
 33 65  1  0
 33 66  1  0
 37 67  1  0
 37 68  1  0
 38 69  1  0
 38 70  1  0
 40 71  1  0
M  END
> <Name>
10

> <AbsoluteEnergy>
88.0269

> <Clean Energy>
144.703

> <Column 1>
10

> <ConfNumber>
153

> <Filter_Pass>
Failed

> <IC50_nM>
62.87

> <LogP>
6.32

> <MOL_NUMBER>
7

> <QSAR_Score_pIC50>
7.202

> <RelativeEnergy>
17.6572

> <SMILES>
COc1cc(C)ccc1NC(=O)C1(c2ccccc2C(F)(F)F)CCN(c2ccc(C3(C(=O)O)CC3)cc2)CC1

> <Toxicity_Alerts>
DILI, Basic N (hERG Warning)

> <Type>
Analog

> <POSE_NUMBER>
22

> <LibDockScore>
117.6662

> <HotSpots>
2.67,-23.92,48.98,A,32,10
-5.13,-22.92,46.19,A,18,25
-4.33,-32.92,55.19,A,75,38

$$$$
10
  SciTegic05082609073D

 71 75  0  0  0  0            999 V2000
   -4.2429  -22.3876   51.2421 F   0  0  0  1  0  0
   -5.2416  -22.5198   50.3161 C   0  0  0  1  0  0
   -6.4048  -22.8952   50.9449 F   0  0  0  1  0  0
   -5.4405  -21.2583   49.7855 F   0  0  0  1  0  0
   -4.9200  -23.5337   49.2327 C   0  0  0  1  0  0
   -4.2075  -24.7726   49.4252 C   0  0  0  1  0  0
   -5.3784  -23.2025   47.9309 C   0  0  0  1  0  0
   -3.9008  -25.5280   48.2617 C   0  0  0  1  0  0
   -3.7506  -25.3336   50.7911 C   0  0  0  1  0  0
   -5.0979  -24.0035   46.8220 C   0  0  0  1  0  0
   -4.3433  -25.1618   46.9866 C   0  0  0  1  0  0
   -2.3028  -24.9444   51.1160 C   0  0  0  1  0  0
   -3.7573  -26.9001   50.8806 C   0  0  0  1  0  0
   -4.7049  -24.9318   51.9615 C   0  0  0  1  0  0
   -2.0503  -24.4547   52.1958 O   0  0  0  1  0  0
   -1.2965  -25.1473   50.1829 N   0  0  0  1  0  0
   -5.1539  -27.5570   50.7906 C   0  0  0  1  0  0
   -6.1308  -25.5004   51.8503 C   0  0  0  1  0  0
    0.0436  -24.8306   50.3658 C   0  0  0  1  0  0
   -6.0922  -26.9877   51.7997 N   0  0  0  1  0  0
    0.7599  -25.2035   51.5350 C   0  0  0  1  0  0
    0.7103  -24.1278   49.3379 C   0  0  0  1  0  0
   -6.8756  -27.7869   52.6311 C   0  0  0  1  0  0
    0.1415  -25.9235   52.4703 O   0  0  0  1  0  0
    2.1151  -24.8164   51.6610 C   0  0  0  1  0  0
    2.0565  -23.7597   49.4758 C   0  0  0  1  0  0
   -7.9643  -27.2399   53.3496 C   0  0  0  1  0  0
   -6.6036  -29.1687   52.7783 C   0  0  0  1  0  0
    0.7871  -26.3518   53.6743 C   0  0  0  1  0  0
    2.7630  -24.0971   50.6419 C   0  0  0  1  0  0
   -8.7703  -28.0502   54.1658 C   0  0  0  1  0  0
   -7.4159  -29.9812   53.5856 C   0  0  0  1  0  0
    4.1934  -23.6978   50.8054 C   0  0  0  1  0  0
   -8.5076  -29.4273   54.2755 C   0  0  0  1  0  0
   -9.4000  -30.3101   55.1169 C   0  0  0  1  0  0
  -10.7179  -30.6652   54.4255 C   0  0  0  1  0  0
   -9.3942  -30.1188   56.6282 C   0  0  0  1  0  0
   -8.7639  -31.3540   56.0233 C   0  0  0  1  0  0
  -11.6154  -31.1579   55.0726 O   0  0  0  1  0  0
  -10.8553  -30.4237   53.1167 O   0  0  0  1  0  0
   -5.9671  -22.2956   47.7926 H   0  0
   -3.2965  -26.4290   48.3671 H   0  0
   -5.4669  -23.7240   45.8352 H   0  0
   -4.0981  -25.7815   46.1241 H   0  0
   -3.1341  -27.2980   50.0797 H   0  0
   -3.2931  -27.1988   51.8205 H   0  0
   -4.7658  -23.8445   52.0075 H   0  0
   -4.2675  -25.2685   52.9014 H   0  0
   -1.5752  -25.5831   49.2463 H   0  0
   -5.0581  -28.6299   50.9576 H   0  0
   -5.5621  -27.3964   49.7927 H   0  0
   -6.7145  -25.1841   52.7148 H   0  0
   -6.6025  -25.1212   50.9438 H   0  0
    0.1719  -23.8684   48.4263 H   0  0
    2.6660  -25.0805   52.5637 H   0  0
    2.5552  -23.2110   48.6769 H   0  0
   -8.1807  -26.1747   53.2687 H   0  0
   -5.7523  -29.6076   52.2580 H   0  0
    1.1541  -25.4264   54.1183 H   0  0
    1.6627  -26.8973   53.3223 H   0  0
    0.1646  -26.9345   54.3533 H   0  0
   -9.6021  -27.6103   54.7160 H   0  0
   -7.1988  -31.0454   53.6775 H   0  0
    4.7279  -24.6298   50.9890 H   0  0
    4.2225  -23.1231   51.7311 H   0  0
    4.5983  -23.1446   49.9580 H   0  0
  -10.3697  -30.3373   57.0627 H   0  0
   -8.6414  -29.3931   56.9359 H   0  0
   -7.6761  -31.2851   56.0114 H   0  0
   -9.4045  -32.2286   56.1366 H   0  0
  -10.0611  -30.9377   52.6611 H   0  0
  1  2  1  0
  2  3  1  0
  2  4  1  0
  2  5  1  0
  5  6  2  0
  5  7  1  0
  6  8  1  0
  6  9  1  0
  7 10  2  0
  8 11  2  0
  9 12  1  0
  9 13  1  0
  9 14  1  0
 10 11  1  0
 12 15  2  0
 12 16  1  0
 13 17  1  0
 14 18  1  0
 16 19  1  0
 17 20  1  0
 18 20  1  0
 19 21  2  0
 19 22  1  0
 20 23  1  0
 21 24  1  0
 21 25  1  0
 22 26  2  0
 23 27  2  0
 23 28  1  0
 24 29  1  0
 25 30  2  0
 26 30  1  0
 27 31  1  0
 28 32  2  0
 30 33  1  0
 31 34  2  0
 32 34  1  0
 34 35  1  0
 35 36  1  0
 35 37  1  0
 35 38  1  0
 36 39  2  0
 36 40  1  0
 37 38  1  0
  7 41  1  0
  8 42  1  0
 10 43  1  0
 11 44  1  0
 13 45  1  0
 13 46  1  0
 14 47  1  0
 14 48  1  0
 16 49  1  0
 17 50  1  0
 17 51  1  0
 18 52  1  0
 18 53  1  0
 22 54  1  0
 25 55  1  0
 26 56  1  0
 27 57  1  0
 28 58  1  0
 29 59  1  0
 29 60  1  0
 29 61  1  0
 31 62  1  0
 32 63  1  0
 33 64  1  0
 33 65  1  0
 33 66  1  0
 37 67  1  0
 37 68  1  0
 38 69  1  0
 38 70  1  0
 40 71  1  0
M  END
> <Name>
10

> <AbsoluteEnergy>
74.3568

> <Clean Energy>
144.703

> <Column 1>
10

> <ConfNumber>
20

> <Filter_Pass>
Failed

> <IC50_nM>
62.87

> <LogP>
6.32

> <MOL_NUMBER>
7

> <QSAR_Score_pIC50>
7.202

> <RelativeEnergy>
3.98708

> <SMILES>
COc1cc(C)ccc1NC(=O)C1(c2ccccc2C(F)(F)F)CCN(c2ccc(C3(C(=O)O)CC3)cc2)CC1

> <Toxicity_Alerts>
DILI, Basic N (hERG Warning)

> <Type>
Analog

> <POSE_NUMBER>
23

> <LibDockScore>
117.3569

> <HotSpots>
-4.93,-23.52,47.59,A,26,10
2.27,-24.92,52.19,A,58,25
-8.73,-28.12,54.38,A,70,31

$$$$
10
  SciTegic05082609073D

 71 75  0  0  0  0            999 V2000
   -5.8402  -21.6702   49.7854 F   0  0  0  1  0  0
   -5.3896  -22.8878   50.2577 C   0  0  0  1  0  0
   -4.3738  -22.6102   51.1371 F   0  0  0  1  0  0
   -6.4445  -23.4830   50.9096 F   0  0  0  1  0  0
   -4.9079  -23.7995   49.1438 C   0  0  0  1  0  0
   -3.9704  -24.8844   49.3033 C   0  0  0  1  0  0
   -5.4351  -23.5389   47.8530 C   0  0  0  1  0  0
   -3.5072  -25.5165   48.1196 C   0  0  0  1  0  0
   -3.4227  -25.4172   50.6478 C   0  0  0  1  0  0
   -4.9936  -24.2274   46.7215 C   0  0  0  1  0  0
   -4.0099  -25.2011   46.8526 C   0  0  0  1  0  0
   -1.9996  -24.9025   50.9190 C   0  0  0  1  0  0
   -4.3399  -25.1246   51.8777 C   0  0  0  1  0  0
   -3.3619  -26.9871   50.7184 C   0  0  0  1  0  0
   -1.8396  -24.0267   51.7412 O   0  0  0  1  0  0
   -0.9036  -25.4341   50.2452 N   0  0  0  1  0  0
   -5.7638  -25.6951   51.7515 C   0  0  0  1  0  0
   -4.7327  -27.7014   50.6140 C   0  0  0  1  0  0
    0.4189  -25.0149   50.3754 C   0  0  0  1  0  0
   -5.7311  -27.1766   51.5969 N   0  0  0  1  0  0
    1.0227  -24.7453   51.6372 C   0  0  0  1  0  0
    1.1992  -24.8573   49.2031 C   0  0  0  1  0  0
   -6.5919  -27.9988   52.3260 C   0  0  0  1  0  0
    0.4138  -24.9444   52.8005 O   0  0  0  1  0  0
    2.3383  -24.2489   51.6867 C   0  0  0  1  0  0
    2.5199  -24.3836   49.2727 C   0  0  0  1  0  0
   -7.7626  -27.4640   52.9149 C   0  0  0  1  0  0
   -6.3215  -29.3757   52.5047 C   0  0  0  1  0  0
   -0.3488  -26.1367   53.0316 C   0  0  0  1  0  0
    3.0914  -24.0637   50.5139 C   0  0  0  1  0  0
   -8.6241  -28.2721   53.6738 C   0  0  0  1  0  0
   -7.1913  -30.1855   53.2546 C   0  0  0  1  0  0
    4.4886  -23.5348   50.5763 C   0  0  0  1  0  0
   -8.3391  -29.6370   53.8548 C   0  0  0  1  0  0
   -9.2602  -30.4952   54.6918 C   0  0  0  1  0  0
  -10.5801  -30.8271   54.0051 C   0  0  0  1  0  0
   -9.3007  -30.2589   56.1965 C   0  0  0  1  0  0
   -8.6699  -31.5187   55.6511 C   0  0  0  1  0  0
  -10.6530  -31.8196   53.3184 O   0  0  0  1  0  0
  -11.6300  -30.0137   54.1821 O   0  0  0  1  0  0
   -6.2080  -22.7784   47.7411 H   0  0
   -2.7302  -26.2766   48.2009 H   0  0
   -5.4171  -24.0032   45.7425 H   0  0
   -3.6313  -25.7175   45.9705 H   0  0
   -4.4064  -24.0459   52.0191 H   0  0
   -3.8738  -25.5409   52.7708 H   0  0
   -2.7196  -27.3482   49.9151 H   0  0
   -2.8894  -27.2774   51.6568 H   0  0
   -1.0941  -26.2380   49.5652 H   0  0
   -6.3344  -25.4399   52.6445 H   0  0
   -6.2536  -25.2545   50.8831 H   0  0
   -4.5931  -28.7685   50.7869 H   0  0
   -5.1260  -27.5711   49.6058 H   0  0
    0.7685  -25.1072   48.2335 H   0  0
    2.7817  -24.0035   52.6517 H   0  0
    3.1028  -24.2641   48.3595 H   0  0
   -7.9989  -26.4089   52.7772 H   0  0
   -5.4295  -29.8130   52.0562 H   0  0
    0.3475  -26.9543   52.8452 H   0  0
   -1.0878  -26.1554   52.2306 H   0  0
   -0.8032  -26.1922   54.0208 H   0  0
   -9.5174  -27.8397   54.1245 H   0  0
   -6.9748  -31.2473   53.3721 H   0  0
    5.0136  -24.2211   51.2407 H   0  0
    4.4007  -22.5859   51.1053 H   0  0
    4.9746  -23.4330   49.6060 H   0  0
  -10.2932  -30.4502   56.6046 H   0  0
   -8.5482  -29.5340   56.5070 H   0  0
   -7.5814  -31.4654   55.6730 H   0  0
   -9.3264  -32.3808   55.7690 H   0  0
  -11.2953  -29.0664   53.8770 H   0  0
  1  2  1  0
  2  3  1  0
  2  4  1  0
  2  5  1  0
  5  6  2  0
  5  7  1  0
  6  8  1  0
  6  9  1  0
  7 10  2  0
  8 11  2  0
  9 12  1  0
  9 13  1  0
  9 14  1  0
 10 11  1  0
 12 15  2  0
 12 16  1  0
 13 17  1  0
 14 18  1  0
 16 19  1  0
 17 20  1  0
 18 20  1  0
 19 21  2  0
 19 22  1  0
 20 23  1  0
 21 24  1  0
 21 25  1  0
 22 26  2  0
 23 27  2  0
 23 28  1  0
 24 29  1  0
 25 30  2  0
 26 30  1  0
 27 31  1  0
 28 32  2  0
 30 33  1  0
 31 34  2  0
 32 34  1  0
 34 35  1  0
 35 36  1  0
 35 37  1  0
 35 38  1  0
 36 39  2  0
 36 40  1  0
 37 38  1  0
  7 41  1  0
  8 42  1  0
 10 43  1  0
 11 44  1  0
 13 45  1  0
 13 46  1  0
 14 47  1  0
 14 48  1  0
 16 49  1  0
 17 50  1  0
 17 51  1  0
 18 52  1  0
 18 53  1  0
 22 54  1  0
 25 55  1  0
 26 56  1  0
 27 57  1  0
 28 58  1  0
 29 59  1  0
 29 60  1  0
 29 61  1  0
 31 62  1  0
 32 63  1  0
 33 64  1  0
 33 65  1  0
 33 66  1  0
 37 67  1  0
 37 68  1  0
 38 69  1  0
 38 70  1  0
 40 71  1  0
M  END
> <Name>
10

> <AbsoluteEnergy>
79.3131

> <Clean Energy>
144.703

> <Column 1>
10

> <ConfNumber>
70

> <Filter_Pass>
Failed

> <IC50_nM>
62.87

> <LogP>
6.32

> <MOL_NUMBER>
7

> <QSAR_Score_pIC50>
7.202

> <RelativeEnergy>
8.94344

> <SMILES>
COc1cc(C)ccc1NC(=O)C1(c2ccccc2C(F)(F)F)CCN(c2ccc(C3(C(=O)O)CC3)cc2)CC1

> <Toxicity_Alerts>
DILI, Basic N (hERG Warning)

> <Type>
Analog

> <POSE_NUMBER>
24

> <LibDockScore>
116.3581

> <HotSpots>
-5.53,-22.92,48.98,A,33,7
2.27,-24.92,52.19,A,58,25
-8.73,-28.12,54.38,A,70,31

$$$$
10
  SciTegic05082609073D

 71 75  0  0  0  0            999 V2000
   -2.5929  -23.1243   48.1922 F   0  0  0  1  0  0
   -3.4957  -24.0943   47.8302 C   0  0  0  1  0  0
   -4.1623  -23.6184   46.7189 F   0  0  0  1  0  0
   -2.8062  -25.1999   47.4138 F   0  0  0  1  0  0
   -4.4354  -24.3983   48.9952 C   0  0  0  1  0  0
   -4.1385  -25.2868   50.0971 C   0  0  0  1  0  0
   -5.6935  -23.7448   48.9764 C   0  0  0  1  0  0
   -5.1472  -25.4814   51.0783 C   0  0  0  1  0  0
   -2.8102  -26.0496   50.2681 C   0  0  0  1  0  0
   -6.6599  -23.9663   49.9657 C   0  0  0  1  0  0
   -6.3889  -24.8434   51.0147 C   0  0  0  1  0  0
   -1.6144  -25.1185   50.0803 C   0  0  0  1  0  0
   -2.4844  -26.5297   51.7545 C   0  0  0  1  0  0
   -2.8895  -27.3443   49.3750 C   0  0  0  1  0  0
   -1.6306  -24.0789   50.7071 O   0  0  0  1  0  0
   -0.5298  -25.4236   49.2739 N   0  0  0  1  0  0
   -2.5160  -28.0535   51.9555 C   0  0  0  1  0  0
   -3.8783  -28.4288   49.9126 C   0  0  0  1  0  0
    0.7074  -24.8298   49.4616 C   0  0  0  1  0  0
   -3.7880  -28.5566   51.3972 N   0  0  0  1  0  0
    1.2465  -24.7211   50.7712 C   0  0  0  1  0  0
    1.4307  -24.3395   48.3540 C   0  0  0  1  0  0
   -4.8359  -28.9940   52.2064 C   0  0  0  1  0  0
    0.5634  -25.2357   51.7963 O   0  0  0  1  0  0
    2.4921  -24.0784   50.9420 C   0  0  0  1  0  0
    2.6756  -23.7160   48.5449 C   0  0  0  1  0  0
   -6.0867  -29.3854   51.6730 C   0  0  0  1  0  0
   -4.6615  -29.0276   53.6105 C   0  0  0  1  0  0
    0.9810  -25.0880   53.1561 C   0  0  0  1  0  0
    3.2082  -23.5761   49.8398 C   0  0  0  1  0  0
   -7.1482  -29.7361   52.5291 C   0  0  0  1  0  0
   -5.7116  -29.3941   54.4609 C   0  0  0  1  0  0
    4.5261  -22.9026   50.0513 C   0  0  0  1  0  0
   -6.9706  -29.7073   53.9240 C   0  0  0  1  0  0
   -8.1250  -29.9875   54.8584 C   0  0  0  1  0  0
   -8.7579  -28.7180   55.4371 C   0  0  0  1  0  0
   -9.0047  -31.2002   54.5997 C   0  0  0  1  0  0
   -8.0410  -31.2066   55.7627 C   0  0  0  1  0  0
   -8.3258  -27.6313   55.1130 O   0  0  0  1  0  0
   -9.7725  -28.8414   56.2957 O   0  0  0  1  0  0
   -5.9154  -23.0488   48.1674 H   0  0
   -4.9450  -26.1536   51.9122 H   0  0
   -7.6209  -23.4544   49.9155 H   0  0
   -7.1412  -25.0305   51.7810 H   0  0
   -1.4971  -26.1618   52.0338 H   0  0
   -3.2015  -26.0735   52.4369 H   0  0
   -3.1951  -27.0591   48.3683 H   0  0
   -1.8945  -27.7831   49.3007 H   0  0
   -0.6511  -26.1367   48.4854 H   0  0
   -2.4649  -28.2856   53.0193 H   0  0
   -1.6779  -28.5107   51.4295 H   0  0
   -4.8968  -28.1538   49.6385 H   0  0
   -3.6419  -29.3899   49.4560 H   0  0
    1.0233  -24.4445   47.3485 H   0  0
    2.9059  -23.9695   51.9445 H   0  0
    3.2310  -23.3391   47.6861 H   0  0
   -6.2294  -29.4156   50.5928 H   0  0
   -3.6937  -28.7638   54.0369 H   0  0
    1.0687  -24.0096   53.2884 H   0  0
    1.9954  -25.4869   53.1643 H   0  0
    0.3313  -25.5576   53.8947 H   0  0
   -8.1102  -30.0307   52.1096 H   0  0
   -5.5520  -29.4362   55.5383 H   0  0
    5.1368  -23.6356   50.5785 H   0  0
    4.3206  -22.0927   50.7513 H   0  0
    4.9961  -22.5511   49.1328 H   0  0
   -8.6319  -31.7945   53.7655 H   0  0
  -10.0297  -31.0277   54.9278 H   0  0
   -8.5531  -31.0384   56.7101 H   0  0
   -7.1549  -31.8037   55.5474 H   0  0
   -9.4047  -29.4449   57.0722 H   0  0
  1  2  1  0
  2  3  1  0
  2  4  1  0
  2  5  1  0
  5  6  2  0
  5  7  1  0
  6  8  1  0
  6  9  1  0
  7 10  2  0
  8 11  2  0
  9 12  1  0
  9 13  1  0
  9 14  1  0
 10 11  1  0
 12 15  2  0
 12 16  1  0
 13 17  1  0
 14 18  1  0
 16 19  1  0
 17 20  1  0
 18 20  1  0
 19 21  2  0
 19 22  1  0
 20 23  1  0
 21 24  1  0
 21 25  1  0
 22 26  2  0
 23 27  2  0
 23 28  1  0
 24 29  1  0
 25 30  2  0
 26 30  1  0
 27 31  1  0
 28 32  2  0
 30 33  1  0
 31 34  2  0
 32 34  1  0
 34 35  1  0
 35 36  1  0
 35 37  1  0
 35 38  1  0
 36 39  2  0
 36 40  1  0
 37 38  1  0
  7 41  1  0
  8 42  1  0
 10 43  1  0
 11 44  1  0
 13 45  1  0
 13 46  1  0
 14 47  1  0
 14 48  1  0
 16 49  1  0
 17 50  1  0
 17 51  1  0
 18 52  1  0
 18 53  1  0
 22 54  1  0
 25 55  1  0
 26 56  1  0
 27 57  1  0
 28 58  1  0
 29 59  1  0
 29 60  1  0
 29 61  1  0
 31 62  1  0
 32 63  1  0
 33 64  1  0
 33 65  1  0
 33 66  1  0
 37 67  1  0
 37 68  1  0
 38 69  1  0
 38 70  1  0
 40 71  1  0
M  END
> <Name>
10

> <AbsoluteEnergy>
86.1177

> <Clean Energy>
144.703

> <Column 1>
10

> <ConfNumber>
135

> <Filter_Pass>
Failed

> <IC50_nM>
62.87

> <LogP>
6.32

> <MOL_NUMBER>
7

> <QSAR_Score_pIC50>
7.202

> <RelativeEnergy>
15.748

> <SMILES>
COc1cc(C)ccc1NC(=O)C1(c2ccccc2C(F)(F)F)CCN(c2ccc(C3(C(=O)O)CC3)cc2)CC1

> <Toxicity_Alerts>
DILI, Basic N (hERG Warning)

> <Type>
Analog

> <POSE_NUMBER>
25

> <LibDockScore>
116.0591

> <HotSpots>
-5.93,-24.72,51.19,A,53,11
1.27,-23.52,47.59,A,27,22
2.27,-24.92,52.19,A,58,29

$$$$
10
  SciTegic05082609073D

 71 75  0  0  0  0            999 V2000
   -3.1905  -25.2981   47.5020 F   0  0  0  1  0  0
   -3.1497  -23.9482   47.7227 C   0  0  0  1  0  0
   -3.6024  -23.3492   46.5634 F   0  0  0  1  0  0
   -1.8518  -23.5460   47.9043 F   0  0  0  1  0  0
   -4.0018  -23.5755   48.9257 C   0  0  0  1  0  0
   -4.0840  -24.3324   50.1526 C   0  0  0  1  0  0
   -4.7812  -22.3958   48.8037 C   0  0  0  1  0  0
   -5.0853  -23.9481   51.0876 C   0  0  0  1  0  0
   -3.1988  -25.5401   50.5279 C   0  0  0  1  0  0
   -5.7031  -22.0139   49.7838 C   0  0  0  1  0  0
   -5.8704  -22.8065   50.9175 C   0  0  0  1  0  0
   -1.7012  -25.3808   50.2377 C   0  0  0  1  0  0
   -3.7796  -26.8113   49.8005 C   0  0  0  1  0  0
   -3.1727  -25.8269   52.0891 C   0  0  0  1  0  0
   -1.1113  -26.2633   49.6558 O   0  0  0  1  0  0
   -1.0157  -24.2524   50.6637 N   0  0  0  1  0  0
   -3.2379  -28.1714   50.3041 C   0  0  0  1  0  0
   -2.5453  -27.1878   52.4497 C   0  0  0  1  0  0
    0.3416  -24.0538   50.4837 C   0  0  0  1  0  0
   -3.3929  -28.1932   51.7748 N   0  0  0  1  0  0
    1.2870  -24.6571   51.3547 C   0  0  0  1  0  0
    0.7831  -23.2219   49.4325 C   0  0  0  1  0  0
   -4.3797  -28.8940   52.4507 C   0  0  0  1  0  0
    0.8480  -25.4179   52.3589 O   0  0  0  1  0  0
    2.6632  -24.4179   51.1381 C   0  0  0  1  0  0
    2.1536  -22.9905   49.2403 C   0  0  0  1  0  0
   -4.3619  -29.0158   53.8580 C   0  0  0  1  0  0
   -5.4655  -29.4420   51.7329 C   0  0  0  1  0  0
    1.7273  -26.0630   53.2854 C   0  0  0  1  0  0
    3.0985  -23.5866   50.0901 C   0  0  0  1  0  0
   -5.5152  -29.4325   54.5403 C   0  0  0  1  0  0
   -6.6102  -29.8752   52.4135 C   0  0  0  1  0  0
    4.5536  -23.3315   49.8771 C   0  0  0  1  0  0
   -6.6727  -29.7555   53.8118 C   0  0  0  1  0  0
   -7.9989  -29.9063   54.5073 C   0  0  0  1  0  0
   -8.5367  -28.5344   54.9353 C   0  0  0  1  0  0
   -8.9767  -30.9700   54.0372 C   0  0  0  1  0  0
   -8.2752  -31.1282   55.3680 C   0  0  0  1  0  0
   -8.8153  -28.3415   56.0968 O   0  0  0  1  0  0
   -8.6878  -27.5699   54.0141 O   0  0  0  1  0  0
   -4.6578  -21.7691   47.9205 H   0  0
   -5.2453  -24.5683   51.9696 H   0  0
   -6.2871  -21.1017   49.6615 H   0  0
   -6.6120  -22.5360   51.6692 H   0  0
   -3.5707  -26.7290   48.7339 H   0  0
   -4.8642  -26.8090   49.9085 H   0  0
   -2.6090  -25.0367   52.5849 H   0  0
   -4.1925  -25.7967   52.4727 H   0  0
   -1.5721  -23.4870   51.1632 H   0  0
   -3.8142  -28.9837   49.8611 H   0  0
   -2.1838  -28.2678   50.0438 H   0  0
   -2.5744  -27.3384   53.5289 H   0  0
   -1.5259  -27.2411   52.0676 H   0  0
    0.0559  -22.7570   48.7668 H   0  0
    3.3986  -24.8848   51.7933 H   0  0
    2.4860  -22.3449   48.4274 H   0  0
   -3.4527  -28.7862   54.4137 H   0  0
   -5.4125  -29.5279   50.6476 H   0  0
    2.3272  -25.2473   53.6889 H   0  0
    2.3894  -26.6527   52.6513 H   0  0
    1.2357  -26.6548   54.0575 H   0  0
   -5.5132  -29.5051   55.6279 H   0  0
   -7.4474  -30.3026   51.8617 H   0  0
    4.9949  -24.3216   49.7630 H   0  0
    4.9074  -22.9331   50.8280 H   0  0
    4.7749  -22.6732   49.0370 H   0  0
   -8.5359  -31.6096   53.2725 H   0  0
  -10.0101  -30.6474   54.1638 H   0  0
   -8.9364  -30.8901   56.2012 H   0  0
   -7.4613  -31.8509   55.3096 H   0  0
   -9.3148  -27.9895   53.2839 H   0  0
  1  2  1  0
  2  3  1  0
  2  4  1  0
  2  5  1  0
  5  6  2  0
  5  7  1  0
  6  8  1  0
  6  9  1  0
  7 10  2  0
  8 11  2  0
  9 12  1  0
  9 13  1  0
  9 14  1  0
 10 11  1  0
 12 15  2  0
 12 16  1  0
 13 17  1  0
 14 18  1  0
 16 19  1  0
 17 20  1  0
 18 20  1  0
 19 21  2  0
 19 22  1  0
 20 23  1  0
 21 24  1  0
 21 25  1  0
 22 26  2  0
 23 27  2  0
 23 28  1  0
 24 29  1  0
 25 30  2  0
 26 30  1  0
 27 31  1  0
 28 32  2  0
 30 33  1  0
 31 34  2  0
 32 34  1  0
 34 35  1  0
 35 36  1  0
 35 37  1  0
 35 38  1  0
 36 39  2  0
 36 40  1  0
 37 38  1  0
  7 41  1  0
  8 42  1  0
 10 43  1  0
 11 44  1  0
 13 45  1  0
 13 46  1  0
 14 47  1  0
 14 48  1  0
 16 49  1  0
 17 50  1  0
 17 51  1  0
 18 52  1  0
 18 53  1  0
 22 54  1  0
 25 55  1  0
 26 56  1  0
 27 57  1  0
 28 58  1  0
 29 59  1  0
 29 60  1  0
 29 61  1  0
 31 62  1  0
 32 63  1  0
 33 64  1  0
 33 65  1  0
 33 66  1  0
 37 67  1  0
 37 68  1  0
 38 69  1  0
 38 70  1  0
 40 71  1  0
M  END
> <Name>
10

> <AbsoluteEnergy>
85.9152

> <Clean Energy>
144.703

> <Column 1>
10

> <ConfNumber>
133

> <Filter_Pass>
Failed

> <IC50_nM>
62.87

> <LogP>
6.32

> <MOL_NUMBER>
7

> <QSAR_Score_pIC50>
7.202

> <RelativeEnergy>
15.5455

> <SMILES>
COc1cc(C)ccc1NC(=O)C1(c2ccccc2C(F)(F)F)CCN(c2ccc(C3(C(=O)O)CC3)cc2)CC1

> <Toxicity_Alerts>
DILI, Basic N (hERG Warning)

> <Type>
Analog

> <POSE_NUMBER>
26

> <LibDockScore>
115.6886

> <HotSpots>
-0.93,-23.32,46.98,A,25,4
-5.53,-22.92,48.98,A,33,11
3.07,-24.52,50.38,A,43,25

$$$$
10
  SciTegic05082609073D

 71 75  0  0  0  0            999 V2000
   -4.7954  -22.2113   46.9699 F   0  0  0  1  0  0
   -4.5383  -23.1134   47.9840 C   0  0  0  1  0  0
   -3.5712  -22.5439   48.7732 F   0  0  0  1  0  0
   -5.7083  -23.2703   48.6903 F   0  0  0  1  0  0
   -4.0835  -24.4627   47.4584 C   0  0  0  1  0  0
   -3.2836  -25.4144   48.1904 C   0  0  0  1  0  0
   -4.4886  -24.7861   46.1380 C   0  0  0  1  0  0
   -2.8117  -26.5462   47.4754 C   0  0  0  1  0  0
   -2.8916  -25.3092   49.6826 C   0  0  0  1  0  0
   -4.0479  -25.9429   45.4922 C   0  0  0  1  0  0
   -3.1880  -26.8118   46.1543 C   0  0  0  1  0  0
   -1.5644  -24.5548   49.8638 C   0  0  0  1  0  0
   -3.9925  -24.6799   50.5945 C   0  0  0  1  0  0
   -2.7218  -26.7072   50.3829 C   0  0  0  1  0  0
   -1.5541  -23.5352   50.5187 O   0  0  0  1  0  0
   -0.3849  -25.0317   49.2988 N   0  0  0  1  0  0
   -5.3367  -25.4290   50.5677 C   0  0  0  1  0  0
   -4.0057  -27.5724   50.4389 C   0  0  0  1  0  0
    0.9019  -24.5840   49.5915 C   0  0  0  1  0  0
   -5.1697  -26.8372   51.0246 N   0  0  0  1  0  0
    1.3007  -24.1816   50.8985 C   0  0  0  1  0  0
    1.8570  -24.5340   48.5459 C   0  0  0  1  0  0
   -6.0593  -27.4129   51.9333 C   0  0  0  1  0  0
    0.5162  -24.2714   51.9662 O   0  0  0  1  0  0
    2.5935  -23.6652   51.1030 C   0  0  0  1  0  0
    3.1516  -24.0383   48.7732 C   0  0  0  1  0  0
   -7.3156  -26.8104   52.1827 C   0  0  0  1  0  0
   -5.7351  -28.5990   52.6324 C   0  0  0  1  0  0
   -0.2286  -25.4688   52.2272 C   0  0  0  1  0  0
    3.5219  -23.5883   50.0499 C   0  0  0  1  0  0
   -8.2099  -27.3622   53.1137 C   0  0  0  1  0  0
   -6.6366  -29.1565   53.5550 C   0  0  0  1  0  0
    4.8933  -23.0372   50.2765 C   0  0  0  1  0  0
   -7.8722  -28.5350   53.8116 C   0  0  0  1  0  0
   -8.8316  -29.1102   54.8286 C   0  0  0  1  0  0
   -9.7541  -30.1833   54.2616 C   0  0  0  1  0  0
   -9.4173  -28.1761   55.8801 C   0  0  0  1  0  0
   -8.4058  -29.2226   56.2854 C   0  0  0  1  0  0
   -9.4777  -31.3478   54.4335 O   0  0  0  1  0  0
  -10.8520  -29.8111   53.5900 O   0  0  0  1  0  0
   -5.1640  -24.1115   45.6119 H   0  0
   -2.1300  -27.2348   47.9747 H   0  0
   -4.3757  -26.1632   44.4763 H   0  0
   -2.8080  -27.6977   45.6455 H   0  0
   -4.1604  -23.6487   50.2839 H   0  0
   -3.6264  -24.6542   51.6209 H   0  0
   -1.9472  -27.2680   49.8598 H   0  0
   -2.3654  -26.5481   51.4006 H   0  0
   -0.4745  -25.8133   48.5736 H   0  0
   -6.0451  -24.9210   51.2220 H   0  0
   -5.7315  -25.4259   49.5517 H   0  0
   -3.8109  -28.4617   51.0383 H   0  0
   -4.2619  -27.8947   49.4297 H   0  0
    1.5832  -24.8852   47.5510 H   0  0
    2.8804  -23.3185   52.0958 H   0  0
    3.8710  -24.0031   47.9551 H   0  0
   -7.5929  -25.9044   51.6438 H   0  0
   -4.7762  -29.0855   52.4537 H   0  0
    0.5192  -26.2610   52.2623 H   0  0
   -0.8241  -25.6290   51.3284 H   0  0
   -0.8376  -25.4287   53.1303 H   0  0
   -9.1699  -26.8794   53.2962 H   0  0
   -6.3764  -30.0779   54.0760 H   0  0
    5.3057  -23.6464   51.0808 H   0  0
    4.7258  -22.0413   50.6867 H   0  0
    5.5259  -23.0265   49.3889 H   0  0
  -10.4308  -28.4687   56.1547 H   0  0
   -8.9698  -27.1837   55.8260 H   0  0
   -7.4201  -28.7870   56.4489 H   0  0
   -8.8806  -30.0723   56.7759 H   0  0
  -10.5019  -29.1938   52.8162 H   0  0
  1  2  1  0
  2  3  1  0
  2  4  1  0
  2  5  1  0
  5  6  2  0
  5  7  1  0
  6  8  1  0
  6  9  1  0
  7 10  2  0
  8 11  2  0
  9 12  1  0
  9 13  1  0
  9 14  1  0
 10 11  1  0
 12 15  2  0
 12 16  1  0
 13 17  1  0
 14 18  1  0
 16 19  1  0
 17 20  1  0
 18 20  1  0
 19 21  2  0
 19 22  1  0
 20 23  1  0
 21 24  1  0
 21 25  1  0
 22 26  2  0
 23 27  2  0
 23 28  1  0
 24 29  1  0
 25 30  2  0
 26 30  1  0
 27 31  1  0
 28 32  2  0
 30 33  1  0
 31 34  2  0
 32 34  1  0
 34 35  1  0
 35 36  1  0
 35 37  1  0
 35 38  1  0
 36 39  2  0
 36 40  1  0
 37 38  1  0
  7 41  1  0
  8 42  1  0
 10 43  1  0
 11 44  1  0
 13 45  1  0
 13 46  1  0
 14 47  1  0
 14 48  1  0
 16 49  1  0
 17 50  1  0
 17 51  1  0
 18 52  1  0
 18 53  1  0
 22 54  1  0
 25 55  1  0
 26 56  1  0
 27 57  1  0
 28 58  1  0
 29 59  1  0
 29 60  1  0
 29 61  1  0
 31 62  1  0
 32 63  1  0
 33 64  1  0
 33 65  1  0
 33 66  1  0
 37 67  1  0
 37 68  1  0
 38 69  1  0
 38 70  1  0
 40 71  1  0
M  END
> <Name>
10

> <AbsoluteEnergy>
79.3131

> <Clean Energy>
144.703

> <Column 1>
10

> <ConfNumber>
70

> <Filter_Pass>
Failed

> <IC50_nM>
62.87

> <LogP>
6.32

> <MOL_NUMBER>
7

> <QSAR_Score_pIC50>
7.202

> <RelativeEnergy>
8.94344

> <SMILES>
COc1cc(C)ccc1NC(=O)C1(c2ccccc2C(F)(F)F)CCN(c2ccc(C3(C(=O)O)CC3)cc2)CC1

> <Toxicity_Alerts>
DILI, Basic N (hERG Warning)

> <Type>
Analog

> <POSE_NUMBER>
27

> <LibDockScore>
113.6521

> <HotSpots>
-5.53,-22.92,48.98,A,33,4
-4.53,-24.52,46.19,A,17,7
4.67,-22.92,49.98,A,40,33

$$$$
10
  SciTegic05082609073D

 71 75  0  0  0  0            999 V2000
   -4.4092  -29.1712   53.5352 F   0  0  0  1  0  0
   -3.1625  -29.1611   52.9793 C   0  0  0  1  0  0
   -2.8264  -30.4833   52.7833 F   0  0  0  1  0  0
   -2.2662  -28.6252   53.8726 F   0  0  0  1  0  0
   -3.0615  -28.3650   51.6883 C   0  0  0  1  0  0
   -3.7789  -27.1490   51.3901 C   0  0  0  1  0  0
   -2.1663  -28.8859   50.7214 C   0  0  0  1  0  0
   -3.5803  -26.5745   50.1047 C   0  0  0  1  0  0
   -4.7476  -26.4511   52.3755 C   0  0  0  1  0  0
   -1.9819  -28.2745   49.4804 C   0  0  0  1  0  0
   -2.6930  -27.1190   49.1694 C   0  0  0  1  0  0
   -6.0863  -27.1945   52.3190 C   0  0  0  1  0  0
   -5.1007  -24.9527   52.0263 C   0  0  0  1  0  0
   -4.0903  -26.2936   53.7945 C   0  0  0  1  0  0
   -6.5440  -27.4682   51.2300 O   0  0  0  1  0  0
   -6.7625  -27.5603   53.4723 N   0  0  0  1  0  0
   -4.0214  -23.9031   52.4232 C   0  0  0  1  0  0
   -2.7252  -25.5591   53.7504 C   0  0  0  1  0  0
   -7.7723  -28.5147   53.5347 C   0  0  0  1  0  0
   -2.7005  -24.5625   52.6329 N   0  0  0  1  0  0
   -7.7158  -29.7255   52.7903 C   0  0  0  1  0  0
   -8.8758  -28.2696   54.3797 C   0  0  0  1  0  0
   -1.5956  -24.3977   51.7920 C   0  0  0  1  0  0
   -6.6407  -29.9809   52.0459 O   0  0  0  1  0  0
   -8.7969  -30.6327   52.8762 C   0  0  0  1  0  0
   -9.9299  -29.1904   54.4647 C   0  0  0  1  0  0
   -0.3053  -24.8076   52.2041 C   0  0  0  1  0  0
   -1.7369  -23.8673   50.4861 C   0  0  0  1  0  0
   -6.4833  -31.1841   51.2887 C   0  0  0  1  0  0
   -9.8990  -30.3735   53.7079 C   0  0  0  1  0  0
    0.7508  -24.8840   51.2830 C   0  0  0  1  0  0
   -0.6766  -23.9254   49.5701 C   0  0  0  1  0  0
  -11.0239  -31.3548   53.7796 C   0  0  0  1  0  0
    0.5422  -24.5096   49.9454 C   0  0  0  1  0  0
    1.6000  -24.7691   48.9020 C   0  0  0  1  0  0
    1.1871  -25.8888   47.9442 C   0  0  0  1  0  0
    2.4012  -23.5915   48.3676 C   0  0  0  1  0  0
    3.0732  -24.6194   49.2486 C   0  0  0  1  0  0
    0.4680  -26.7797   48.3428 O   0  0  0  1  0  0
    1.6171  -25.8568   46.6838 O   0  0  0  1  0  0
   -1.6050  -29.7909   50.9537 H   0  0
   -4.1394  -25.6776   49.8381 H   0  0
   -1.2847  -28.6996   48.7585 H   0  0
   -2.5591  -26.6394   48.1998 H   0  0
   -6.0368  -24.6905   52.5193 H   0  0
   -5.2792  -24.8779   50.9536 H   0  0
   -3.9460  -27.2817   54.2314 H   0  0
   -4.7700  -25.7382   54.4407 H   0  0
   -6.4869  -27.0716   54.3834 H   0  0
   -3.9310  -23.1608   51.6301 H   0  0
   -4.3239  -23.4033   53.3434 H   0  0
   -1.9274  -26.2867   53.6012 H   0  0
   -2.5622  -25.0430   54.6966 H   0  0
   -8.9090  -27.3553   54.9722 H   0  0
   -8.7748  -31.5493   52.2867 H   0  0
  -10.7765  -28.9874   55.1205 H   0  0
   -0.1298  -25.0668   53.2482 H   0  0
   -2.6804  -23.4088   50.1899 H   0  0
   -7.3714  -31.2124   50.6574 H   0  0
   -6.6029  -31.9751   52.0291 H   0  0
   -5.5539  -31.2620   50.7246 H   0  0
    1.7317  -25.2334   51.6052 H   0  0
   -0.7995  -23.5168   48.5671 H   0  0
  -10.5601  -32.2964   54.0734 H   0  0
  -11.3642  -31.4713   52.7507 H   0  0
  -11.8275  -31.0578   54.4534 H   0  0
    2.1802  -22.6755   48.9155 H   0  0
    2.6622  -23.7291   47.3183 H   0  0
    3.6925  -25.3030   48.6679 H   0  0
    3.2091  -24.2503   50.2652 H   0  0
    2.6638  -25.8129   46.7547 H   0  0
  1  2  1  0
  2  3  1  0
  2  4  1  0
  2  5  1  0
  5  6  2  0
  5  7  1  0
  6  8  1  0
  6  9  1  0
  7 10  2  0
  8 11  2  0
  9 12  1  0
  9 13  1  0
  9 14  1  0
 10 11  1  0
 12 15  2  0
 12 16  1  0
 13 17  1  0
 14 18  1  0
 16 19  1  0
 17 20  1  0
 18 20  1  0
 19 21  2  0
 19 22  1  0
 20 23  1  0
 21 24  1  0
 21 25  1  0
 22 26  2  0
 23 27  2  0
 23 28  1  0
 24 29  1  0
 25 30  2  0
 26 30  1  0
 27 31  1  0
 28 32  2  0
 30 33  1  0
 31 34  2  0
 32 34  1  0
 34 35  1  0
 35 36  1  0
 35 37  1  0
 35 38  1  0
 36 39  2  0
 36 40  1  0
 37 38  1  0
  7 41  1  0
  8 42  1  0
 10 43  1  0
 11 44  1  0
 13 45  1  0
 13 46  1  0
 14 47  1  0
 14 48  1  0
 16 49  1  0
 17 50  1  0
 17 51  1  0
 18 52  1  0
 18 53  1  0
 22 54  1  0
 25 55  1  0
 26 56  1  0
 27 57  1  0
 28 58  1  0
 29 59  1  0
 29 60  1  0
 29 61  1  0
 31 62  1  0
 32 63  1  0
 33 64  1  0
 33 65  1  0
 33 66  1  0
 37 67  1  0
 37 68  1  0
 38 69  1  0
 38 70  1  0
 40 71  1  0
M  END
> <Name>
10

> <AbsoluteEnergy>
84.2515

> <Clean Energy>
144.703

> <Column 1>
10

> <ConfNumber>
117

> <Filter_Pass>
Failed

> <IC50_nM>
62.87

> <LogP>
6.32

> <MOL_NUMBER>
7

> <QSAR_Score_pIC50>
7.202

> <RelativeEnergy>
13.8819

> <SMILES>
COc1cc(C)ccc1NC(=O)C1(c2ccccc2C(F)(F)F)CCN(c2ccc(C3(C(=O)O)CC3)cc2)CC1

> <Toxicity_Alerts>
DILI, Basic N (hERG Warning)

> <Type>
Analog

> <POSE_NUMBER>
28

> <LibDockScore>
107.8759

> <HotSpots>
-8.73,-28.12,54.38,A,70,22
-9.53,-30.12,52.78,A,62,25
2.67,-23.92,48.98,A,32,38

$$$$
10
  SciTegic05082609073D

 71 75  0  0  0  0            999 V2000
   -3.4877  -22.1196   51.0929 F   0  0  0  1  0  0
   -4.6235  -22.5224   50.4466 C   0  0  0  1  0  0
   -5.5641  -22.9239   51.3624 F   0  0  0  1  0  0
   -5.1148  -21.4045   49.8073 F   0  0  0  1  0  0
   -4.3671  -23.6618   49.4776 C   0  0  0  1  0  0
   -3.4503  -24.7514   49.7019 C   0  0  0  1  0  0
   -5.1040  -23.6265   48.2675 C   0  0  0  1  0  0
   -3.2616  -25.6731   48.6373 C   0  0  0  1  0  0
   -2.6568  -24.9870   51.0061 C   0  0  0  1  0  0
   -4.9212  -24.5814   47.2637 C   0  0  0  1  0  0
   -3.9878  -25.5984   47.4437 C   0  0  0  1  0  0
   -1.3006  -24.2717   50.9879 C   0  0  0  1  0  0
   -3.4528  -24.6252   52.2894 C   0  0  0  1  0  0
   -2.3333  -26.4865   51.3001 C   0  0  0  1  0  0
   -1.0138  -23.5231   51.8968 O   0  0  0  1  0  0
   -0.4129  -24.4785   49.9416 N   0  0  0  1  0  0
   -4.8043  -25.3417   52.4085 C   0  0  0  1  0  0
   -3.5445  -27.4250   51.5205 C   0  0  0  1  0  0
    0.9478  -24.1902   49.9506 C   0  0  0  1  0  0
   -4.7464  -26.8249   52.1971 N   0  0  0  1  0  0
    1.7910  -24.4945   51.0547 C   0  0  0  1  0  0
    1.5017  -23.5840   48.8021 C   0  0  0  1  0  0
   -5.8210  -27.6372   52.5956 C   0  0  0  1  0  0
    1.2762  -25.1243   52.1107 O   0  0  0  1  0  0
    3.1588  -24.1342   50.9908 C   0  0  0  1  0  0
    2.8612  -23.2461   48.7522 C   0  0  0  1  0  0
   -7.1153  -27.0916   52.7898 C   0  0  0  1  0  0
   -5.6568  -29.0284   52.8145 C   0  0  0  1  0  0
    2.0764  -25.5846   53.2038 C   0  0  0  1  0  0
    3.6956  -23.5131   49.8495 C   0  0  0  1  0  0
   -8.1908  -27.8953   53.2009 C   0  0  0  1  0  0
   -6.7336  -29.8341   53.2251 C   0  0  0  1  0  0
    5.1403  -23.1361   49.7920 C   0  0  0  1  0  0
   -8.0041  -29.2685   53.4240 C   0  0  0  1  0  0
   -9.1675  -30.1269   53.8706 C   0  0  0  1  0  0
   -9.9087  -30.7932   52.7175 C   0  0  0  1  0  0
   -9.9967  -29.6718   55.0617 C   0  0  0  1  0  0
   -9.0719  -30.8557   55.2027 C   0  0  0  1  0  0
  -10.1321  -30.1558   51.7129 O   0  0  0  1  0  0
  -10.3004  -32.0619   52.8424 O   0  0  0  1  0  0
   -5.8343  -22.8317   48.1154 H   0  0
   -2.5243  -26.4673   48.7547 H   0  0
   -5.5060  -24.5302   46.3453 H   0  0
   -3.8231  -26.3345   46.6569 H   0  0
   -3.6241  -23.5489   52.3066 H   0  0
   -2.8467  -24.8728   53.1609 H   0  0
   -1.7404  -26.8795   50.4742 H   0  0
   -1.6960  -26.5359   52.1830 H   0  0
   -0.8129  -24.8995   49.0429 H   0  0
   -5.2180  -25.1468   53.3979 H   0  0
   -5.4942  -24.9131   51.6815 H   0  0
   -3.2151  -28.2831   52.1064 H   0  0
   -3.8570  -27.8179   50.5530 H   0  0
    0.8639  -23.3760   47.9430 H   0  0
    3.8073  -24.3421   51.8419 H   0  0
    3.2717  -22.7748   47.8592 H   0  0
   -7.2785  -26.0279   52.6166 H   0  0
   -4.6775  -29.4819   52.6616 H   0  0
    2.6012  -24.6904   53.5400 H   0  0
    2.8218  -26.2250   52.7323 H   0  0
    1.5278  -26.0838   54.0025 H   0  0
   -9.1752  -27.4508   53.3475 H   0  0
   -6.5821  -30.9009   53.3896 H   0  0
    5.6758  -24.0655   49.9857 H   0  0
    5.2928  -22.4950   50.6602 H   0  0
    5.4442  -22.6613   48.8591 H   0  0
  -11.0371  -29.9829   54.9672 H   0  0
   -9.5777  -28.7767   55.5215 H   0  0
   -8.1598  -30.5923   55.7382 H   0  0
   -9.6188  -31.7984   55.1823 H   0  0
  -10.8942  -32.0791   53.7082 H   0  0
  1  2  1  0
  2  3  1  0
  2  4  1  0
  2  5  1  0
  5  6  2  0
  5  7  1  0
  6  8  1  0
  6  9  1  0
  7 10  2  0
  8 11  2  0
  9 12  1  0
  9 13  1  0
  9 14  1  0
 10 11  1  0
 12 15  2  0
 12 16  1  0
 13 17  1  0
 14 18  1  0
 16 19  1  0
 17 20  1  0
 18 20  1  0
 19 21  2  0
 19 22  1  0
 20 23  1  0
 21 24  1  0
 21 25  1  0
 22 26  2  0
 23 27  2  0
 23 28  1  0
 24 29  1  0
 25 30  2  0
 26 30  1  0
 27 31  1  0
 28 32  2  0
 30 33  1  0
 31 34  2  0
 32 34  1  0
 34 35  1  0
 35 36  1  0
 35 37  1  0
 35 38  1  0
 36 39  2  0
 36 40  1  0
 37 38  1  0
  7 41  1  0
  8 42  1  0
 10 43  1  0
 11 44  1  0
 13 45  1  0
 13 46  1  0
 14 47  1  0
 14 48  1  0
 16 49  1  0
 17 50  1  0
 17 51  1  0
 18 52  1  0
 18 53  1  0
 22 54  1  0
 25 55  1  0
 26 56  1  0
 27 57  1  0
 28 58  1  0
 29 59  1  0
 29 60  1  0
 29 61  1  0
 31 62  1  0
 32 63  1  0
 33 64  1  0
 33 65  1  0
 33 66  1  0
 37 67  1  0
 37 68  1  0
 38 69  1  0
 38 70  1  0
 40 71  1  0
M  END
> <Name>
10

> <AbsoluteEnergy>
72.9163

> <Clean Energy>
144.703

> <Column 1>
10

> <ConfNumber>
11

> <Filter_Pass>
Failed

> <IC50_nM>
62.87

> <LogP>
6.32

> <MOL_NUMBER>
7

> <QSAR_Score_pIC50>
7.202

> <RelativeEnergy>
2.54663

> <SMILES>
COc1cc(C)ccc1NC(=O)C1(c2ccccc2C(F)(F)F)CCN(c2ccc(C3(C(=O)O)CC3)cc2)CC1

> <Toxicity_Alerts>
DILI, Basic N (hERG Warning)

> <Type>
Analog

> <POSE_NUMBER>
29

> <LibDockScore>
107.5745

> <HotSpots>
-5.13,-23.32,51.38,A,54,3
2.67,-23.92,48.98,A,32,26
4.67,-22.92,49.98,A,40,33

$$$$
10
  SciTegic05082609073D

 71 75  0  0  0  0            999 V2000
   -2.2763  -30.1156   50.7186 F   0  0  0  1  0  0
   -3.0201  -29.0744   51.2318 C   0  0  0  1  0  0
   -2.7526  -27.9912   50.4420 F   0  0  0  1  0  0
   -4.3414  -29.4169   51.0857 F   0  0  0  1  0  0
   -2.7208  -28.8235   52.7067 C   0  0  0  1  0  0
   -2.9388  -27.5768   53.4025 C   0  0  0  1  0  0
   -2.1985  -29.9184   53.4361 C   0  0  0  1  0  0
   -2.6178  -27.5168   54.7820 C   0  0  0  1  0  0
   -3.4980  -26.3133   52.7320 C   0  0  0  1  0  0
   -1.8892  -29.8219   54.7954 C   0  0  0  1  0  0
   -2.1010  -28.6197   55.4698 C   0  0  0  1  0  0
   -2.4272  -25.6635   51.8382 C   0  0  0  1  0  0
   -3.8878  -25.1366   53.7106 C   0  0  0  1  0  0
   -4.8397  -26.6941   51.9918 C   0  0  0  1  0  0
   -2.7565  -25.2035   50.7707 O   0  0  0  1  0  0
   -1.1061  -25.5981   52.2771 N   0  0  0  1  0  0
   -4.4829  -23.8896   52.9821 C   0  0  0  1  0  0
   -5.9510  -25.6280   52.0308 C   0  0  0  1  0  0
    0.0331  -25.1473   51.6070 C   0  0  0  1  0  0
   -5.2931  -24.3244   51.8056 N   0  0  0  1  0  0
    0.2499  -25.2801   50.2047 C   0  0  0  1  0  0
    1.0344  -24.5283   52.3954 C   0  0  0  1  0  0
   -5.3083  -23.7184   50.5519 C   0  0  0  1  0  0
   -0.6405  -25.9302   49.4589 O   0  0  0  1  0  0
    1.4256  -24.7312   49.6374 C   0  0  0  1  0  0
    2.2069  -24.0206   51.8195 C   0  0  0  1  0  0
   -6.3540  -23.9870   49.6363 C   0  0  0  1  0  0
   -4.2482  -22.8810   50.1343 C   0  0  0  1  0  0
   -0.5350  -26.0378   48.0352 C   0  0  0  1  0  0
    2.4039  -24.1104   50.4351 C   0  0  0  1  0  0
   -6.2252  -23.6349   48.2857 C   0  0  0  1  0  0
   -4.1191  -22.5267   48.7833 C   0  0  0  1  0  0
    3.6483  -23.5488   49.8260 C   0  0  0  1  0  0
   -5.0612  -22.9809   47.8457 C   0  0  0  1  0  0
   -4.7911  -22.8115   46.3732 C   0  0  0  1  0  0
   -4.6550  -24.1759   45.6967 C   0  0  0  1  0  0
   -5.4245  -21.6684   45.5958 C   0  0  0  1  0  0
   -3.9451  -21.6397   45.8999 C   0  0  0  1  0  0
   -3.5656  -24.5623   45.3446 O   0  0  0  1  0  0
   -5.7482  -24.9277   45.5220 O   0  0  0  1  0  0
   -2.0326  -30.8652   52.9221 H   0  0
   -2.7784  -26.5840   55.3225 H   0  0
   -1.4839  -30.6831   55.3266 H   0  0
   -1.8643  -28.5397   56.5308 H   0  0
   -3.0016  -24.8298   54.2662 H   0  0
   -4.6175  -25.5043   54.4320 H   0  0
   -5.2289  -27.6143   52.4275 H   0  0
   -4.6106  -26.9160   50.9495 H   0  0
   -0.9401  -25.9447   53.2757 H   0  0
   -3.6716  -23.2451   52.6437 H   0  0
   -5.1178  -23.3351   53.6731 H   0  0
   -6.6747  -25.8192   51.2385 H   0  0
   -6.4362  -25.6339   53.0068 H   0  0
    0.8898  -24.4452   53.4726 H   0  0
    1.5757  -24.7910   48.5594 H   0  0
    2.9659  -23.5557   52.4488 H   0  0
   -7.2664  -24.4714   49.9843 H   0  0
   -3.5291  -22.5097   50.8645 H   0  0
    0.4511  -26.4751   47.8788 H   0  0
   -0.4733  -25.0028   47.6991 H   0  0
   -1.3340  -26.5987   47.5503 H   0  0
   -7.0232  -23.8669   47.5804 H   0  0
   -3.2881  -21.8992   48.4612 H   0  0
    3.2925  -22.8449   49.0737 H   0  0
    4.0944  -24.3867   49.2902 H   0  0
    4.3331  -23.0923   50.5406 H   0  0
   -5.9826  -20.9996   46.2510 H   0  0
   -5.6168  -21.9478   44.5599 H   0  0
   -3.3498  -21.9031   45.0256 H   0  0
   -3.7158  -20.9564   46.7176 H   0  0
   -6.4114  -24.3221   44.9780 H   0  0
  1  2  1  0
  2  3  1  0
  2  4  1  0
  2  5  1  0
  5  6  2  0
  5  7  1  0
  6  8  1  0
  6  9  1  0
  7 10  2  0
  8 11  2  0
  9 12  1  0
  9 13  1  0
  9 14  1  0
 10 11  1  0
 12 15  2  0
 12 16  1  0
 13 17  1  0
 14 18  1  0
 16 19  1  0
 17 20  1  0
 18 20  1  0
 19 21  2  0
 19 22  1  0
 20 23  1  0
 21 24  1  0
 21 25  1  0
 22 26  2  0
 23 27  2  0
 23 28  1  0
 24 29  1  0
 25 30  2  0
 26 30  1  0
 27 31  1  0
 28 32  2  0
 30 33  1  0
 31 34  2  0
 32 34  1  0
 34 35  1  0
 35 36  1  0
 35 37  1  0
 35 38  1  0
 36 39  2  0
 36 40  1  0
 37 38  1  0
  7 41  1  0
  8 42  1  0
 10 43  1  0
 11 44  1  0
 13 45  1  0
 13 46  1  0
 14 47  1  0
 14 48  1  0
 16 49  1  0
 17 50  1  0
 17 51  1  0
 18 52  1  0
 18 53  1  0
 22 54  1  0
 25 55  1  0
 26 56  1  0
 27 57  1  0
 28 58  1  0
 29 59  1  0
 29 60  1  0
 29 61  1  0
 31 62  1  0
 32 63  1  0
 33 64  1  0
 33 65  1  0
 33 66  1  0
 37 67  1  0
 37 68  1  0
 38 69  1  0
 38 70  1  0
 40 71  1  0
M  END
> <Name>
10

> <AbsoluteEnergy>
83.8862

> <Clean Energy>
144.703

> <Column 1>
10

> <ConfNumber>
114

> <Filter_Pass>
Failed

> <IC50_nM>
62.87

> <LogP>
6.32

> <MOL_NUMBER>
7

> <QSAR_Score_pIC50>
7.202

> <RelativeEnergy>
13.5166

> <SMILES>
COc1cc(C)ccc1NC(=O)C1(c2ccccc2C(F)(F)F)CCN(c2ccc(C3(C(=O)O)CC3)cc2)CC1

> <Toxicity_Alerts>
DILI, Basic N (hERG Warning)

> <Type>
Analog

> <POSE_NUMBER>
30

> <LibDockScore>
107.1225

> <HotSpots>
-5.93,-24.72,51.19,A,53,18
4.07,-23.72,49.78,A,37,33
-3.53,-20.52,45.19,A,12,38

$$$$
10
  SciTegic05082609073D

 71 75  0  0  0  0            999 V2000
   -2.7388  -27.6573   48.2987 F   0  0  0  1  0  0
   -2.2850  -27.9874   49.5538 C   0  0  0  1  0  0
   -1.2092  -28.8354   49.4068 F   0  0  0  1  0  0
   -3.2502  -28.6969   50.2158 F   0  0  0  1  0  0
   -1.8503  -26.7112   50.2524 C   0  0  0  1  0  0
   -2.4654  -26.1249   51.4177 C   0  0  0  1  0  0
   -0.7276  -26.0694   49.6739 C   0  0  0  1  0  0
   -1.7893  -25.0265   52.0168 C   0  0  0  1  0  0
   -3.7897  -26.6096   52.0648 C   0  0  0  1  0  0
   -0.1368  -24.9474   50.2595 C   0  0  0  1  0  0
   -0.6552  -24.4396   51.4474 C   0  0  0  1  0  0
   -3.5297  -27.9369   52.7956 C   0  0  0  1  0  0
   -4.3415  -25.5818   53.1398 C   0  0  0  1  0  0
   -4.9779  -26.7215   51.0110 C   0  0  0  1  0  0
   -2.3972  -28.3611   52.8896 O   0  0  0  1  0  0
   -4.5857  -28.6535   53.3345 N   0  0  0  1  0  0
   -4.6726  -24.1629   52.5770 C   0  0  0  1  0  0
   -5.8488  -25.4530   50.8628 C   0  0  0  1  0  0
   -4.4874  -29.8790   53.9816 C   0  0  0  1  0  0
   -4.9673  -24.2982   51.1259 N   0  0  0  1  0  0
   -3.5620  -30.1224   55.0311 C   0  0  0  1  0  0
   -5.3569  -30.9103   53.5679 C   0  0  0  1  0  0
   -4.3212  -23.5790   50.1247 C   0  0  0  1  0  0
   -2.7913  -29.1237   55.4599 O   0  0  0  1  0  0
   -3.4973  -31.4167   55.5991 C   0  0  0  1  0  0
   -5.2894  -32.1822   54.1520 C   0  0  0  1  0  0
   -4.5339  -23.9221   48.7693 C   0  0  0  1  0  0
   -3.4081  -22.5411   50.4208 C   0  0  0  1  0  0
   -1.7855  -29.2954   56.4622 C   0  0  0  1  0  0
   -4.3529  -32.4441   55.1650 C   0  0  0  1  0  0
   -3.7559  -23.3512   47.7558 C   0  0  0  1  0  0
   -2.6254  -21.9693   49.4030 C   0  0  0  1  0  0
   -4.2587  -33.8007   55.7851 C   0  0  0  1  0  0
   -2.7632  -22.4121   48.0757 C   0  0  0  1  0  0
   -1.8379  -21.9160   46.9933 C   0  0  0  1  0  0
   -0.7487  -22.9363   46.6797 C   0  0  0  1  0  0
   -2.4095  -21.1064   45.8411 C   0  0  0  1  0  0
   -1.5439  -20.4284   46.8761 C   0  0  0  1  0  0
    0.4036  -22.5752   46.6082 O   0  0  0  1  0  0
   -1.0911  -24.2144   46.4992 O   0  0  0  1  0  0
   -0.3131  -26.4623   48.7455 H   0  0
   -2.1701  -24.6266   52.9566 H   0  0
    0.7244  -24.4726   49.7895 H   0  0
   -0.1787  -23.5874   51.9320 H   0  0
   -3.6048  -25.4775   53.9364 H   0  0
   -5.2427  -25.9970   53.5909 H   0  0
   -5.6223  -27.5528   51.2970 H   0  0
   -4.5578  -26.9695   50.0363 H   0  0
   -5.5624  -28.2258   53.2445 H   0  0
   -3.8162  -23.5032   52.7168 H   0  0
   -5.5443  -23.7588   53.0918 H   0  0
   -6.2443  -25.3930   49.8488 H   0  0
   -6.6591  -25.4730   51.5915 H   0  0
   -6.0896  -30.7154   52.7848 H   0  0
   -2.7718  -31.6206   56.3866 H   0  0
   -5.9653  -32.9700   53.8193 H   0  0
   -5.3128  -24.6395   48.5111 H   0  0
   -3.3104  -22.1819   51.4453 H   0  0
   -1.1544  -30.0912   56.0666 H   0  0
   -2.3276  -29.7187   57.3078 H   0  0
   -1.2275  -28.3951   56.7194 H   0  0
   -3.9211  -23.6362   46.7168 H   0  0
   -1.9109  -21.1819   49.6429 H   0  0
   -4.4017  -33.6351   56.8529 H   0  0
   -3.2221  -34.1062   55.6430 H   0  0
   -4.9657  -34.5231   55.3771 H   0  0
   -3.4659  -20.8847   45.9928 H   0  0
   -1.8629  -21.2872   44.9156 H   0  0
   -0.5362  -20.2479   46.5018 H   0  0
   -2.1393  -19.8468   47.5799 H   0  0
   -1.8025  -24.2004   45.7270 H   0  0
  1  2  1  0
  2  3  1  0
  2  4  1  0
  2  5  1  0
  5  6  2  0
  5  7  1  0
  6  8  1  0
  6  9  1  0
  7 10  2  0
  8 11  2  0
  9 12  1  0
  9 13  1  0
  9 14  1  0
 10 11  1  0
 12 15  2  0
 12 16  1  0
 13 17  1  0
 14 18  1  0
 16 19  1  0
 17 20  1  0
 18 20  1  0
 19 21  2  0
 19 22  1  0
 20 23  1  0
 21 24  1  0
 21 25  1  0
 22 26  2  0
 23 27  2  0
 23 28  1  0
 24 29  1  0
 25 30  2  0
 26 30  1  0
 27 31  1  0
 28 32  2  0
 30 33  1  0
 31 34  2  0
 32 34  1  0
 34 35  1  0
 35 36  1  0
 35 37  1  0
 35 38  1  0
 36 39  2  0
 36 40  1  0
 37 38  1  0
  7 41  1  0
  8 42  1  0
 10 43  1  0
 11 44  1  0
 13 45  1  0
 13 46  1  0
 14 47  1  0
 14 48  1  0
 16 49  1  0
 17 50  1  0
 17 51  1  0
 18 52  1  0
 18 53  1  0
 22 54  1  0
 25 55  1  0
 26 56  1  0
 27 57  1  0
 28 58  1  0
 29 59  1  0
 29 60  1  0
 29 61  1  0
 31 62  1  0
 32 63  1  0
 33 64  1  0
 33 65  1  0
 33 66  1  0
 37 67  1  0
 37 68  1  0
 38 69  1  0
 38 70  1  0
 40 71  1  0
M  END
> <Name>
10

> <AbsoluteEnergy>
83.3357

> <Clean Energy>
144.703

> <Column 1>
10

> <ConfNumber>
108

> <Filter_Pass>
Failed

> <IC50_nM>
62.87

> <LogP>
6.32

> <MOL_NUMBER>
7

> <QSAR_Score_pIC50>
7.202

> <RelativeEnergy>
12.966

> <SMILES>
COc1cc(C)ccc1NC(=O)C1(c2ccccc2C(F)(F)F)CCN(c2ccc(C3(C(=O)O)CC3)cc2)CC1

> <Toxicity_Alerts>
DILI, Basic N (hERG Warning)

> <Type>
Analog

> <POSE_NUMBER>
31

> <LibDockScore>
104.1017

> <HotSpots>
-1.93,-29.12,49.19,A,34,3
-1.53,-28.72,56.38,A,78,29
-2.53,-21.12,45.98,A,16,38

$$$$
10
  SciTegic05082609073D

 71 75  0  0  0  0            999 V2000
   -0.9750  -24.7737   48.2193 F   0  0  0  1  0  0
   -0.5202  -23.6953   47.5205 C   0  0  0  1  0  0
    0.2424  -24.1851   46.4779 F   0  0  0  1  0  0
    0.3114  -22.9732   48.3396 F   0  0  0  1  0  0
   -1.6205  -22.7696   47.0161 C   0  0  0  1  0  0
   -2.9207  -22.5949   47.6253 C   0  0  0  1  0  0
   -1.2979  -22.0177   45.8575 C   0  0  0  1  0  0
   -3.8084  -21.6686   47.0083 C   0  0  0  1  0  0
   -3.3770  -23.3532   48.8982 C   0  0  0  1  0  0
   -2.2029  -21.1241   45.2805 C   0  0  0  1  0  0
   -3.4596  -20.9501   45.8563 C   0  0  0  1  0  0
   -2.3133  -23.1683   50.0027 C   0  0  0  1  0  0
   -3.7009  -24.8531   48.5089 C   0  0  0  1  0  0
   -4.6826  -22.7682   49.5563 C   0  0  0  1  0  0
   -1.7069  -22.1197   50.0575 O   0  0  0  1  0  0
   -2.0436  -24.1677   50.9275 N   0  0  0  1  0  0
   -5.1212  -25.3590   48.8461 C   0  0  0  1  0  0
   -5.2947  -23.6314   50.6888 C   0  0  0  1  0  0
   -0.8096  -24.4635   51.5039 C   0  0  0  1  0  0
   -5.4794  -25.0387   50.2495 N   0  0  0  1  0  0
   -0.7325  -25.4217   52.5511 C   0  0  0  1  0  0
    0.3768  -23.8354   51.0540 C   0  0  0  1  0  0
   -5.9336  -26.0180   51.1138 C   0  0  0  1  0  0
   -1.8504  -26.0117   52.9796 O   0  0  0  1  0  0
    0.5299  -25.7224   53.1146 C   0  0  0  1  0  0
    1.6175  -24.1404   51.6323 C   0  0  0  1  0  0
   -7.1401  -25.8663   51.8327 C   0  0  0  1  0  0
   -5.1833  -27.1972   51.2740 C   0  0  0  1  0  0
   -1.8460  -27.0489   53.9677 C   0  0  0  1  0  0
    1.7004  -25.0892   52.6628 C   0  0  0  1  0  0
   -7.6051  -26.9021   52.6687 C   0  0  0  1  0  0
   -5.6448  -28.2276   52.1095 C   0  0  0  1  0  0
    3.0187  -25.4268   53.2810 C   0  0  0  1  0  0
   -6.8682  -28.0968   52.7986 C   0  0  0  1  0  0
   -7.3837  -29.2379   53.6594 C   0  0  0  1  0  0
   -6.8058  -29.2742   55.0806 C   0  0  0  1  0  0
   -8.7805  -29.7797   53.3661 C   0  0  0  1  0  0
   -7.5691  -30.5911   52.9856 C   0  0  0  1  0  0
   -5.8188  -29.9450   55.2812 O   0  0  0  1  0  0
   -7.3817  -28.5958   56.0842 O   0  0  0  1  0  0
   -0.3144  -22.1410   45.4040 H   0  0
   -4.7939  -21.5126   47.4471 H   0  0
   -1.9278  -20.5663   44.3853 H   0  0
   -4.1716  -20.2552   45.4110 H   0  0
   -3.5384  -24.9750   47.4380 H   0  0
   -2.9789  -25.5031   49.0032 H   0  0
   -4.4586  -21.7792   49.9561 H   0  0
   -5.4347  -22.6314   48.7793 H   0  0
   -2.8707  -24.7754   51.2299 H   0  0
   -5.1632  -26.4387   48.7029 H   0  0
   -5.8399  -24.8874   48.1759 H   0  0
   -4.6329  -23.6103   51.5547 H   0  0
   -6.2607  -23.2164   50.9765 H   0  0
    0.3252  -23.1046   50.2469 H   0  0
    0.5960  -26.4596   53.9148 H   0  0
    2.5193  -23.6394   51.2805 H   0  0
   -7.7142  -24.9443   51.7407 H   0  0
   -4.2368  -27.3121   50.7458 H   0  0
   -1.3276  -26.6026   54.8163 H   0  0
   -1.1772  -27.8040   53.5547 H   0  0
   -2.8278  -27.4447   54.2275 H   0  0
   -8.5389  -26.7785   53.2172 H   0  0
   -5.0528  -29.1353   52.2262 H   0  0
    3.1190  -26.5054   53.1603 H   0  0
    2.8887  -25.2338   54.3459 H   0  0
    3.8604  -24.8791   52.8571 H   0  0
   -9.2251  -29.2886   52.5005 H   0  0
   -9.2562  -30.1638   54.2685 H   0  0
   -7.3982  -31.4114   53.6827 H   0  0
   -7.3662  -30.5354   51.9161 H   0  0
   -8.3728  -28.9424   56.0896 H   0  0
  1  2  1  0
  2  3  1  0
  2  4  1  0
  2  5  1  0
  5  6  2  0
  5  7  1  0
  6  8  1  0
  6  9  1  0
  7 10  2  0
  8 11  2  0
  9 12  1  0
  9 13  1  0
  9 14  1  0
 10 11  1  0
 12 15  2  0
 12 16  1  0
 13 17  1  0
 14 18  1  0
 16 19  1  0
 17 20  1  0
 18 20  1  0
 19 21  2  0
 19 22  1  0
 20 23  1  0
 21 24  1  0
 21 25  1  0
 22 26  2  0
 23 27  2  0
 23 28  1  0
 24 29  1  0
 25 30  2  0
 26 30  1  0
 27 31  1  0
 28 32  2  0
 30 33  1  0
 31 34  2  0
 32 34  1  0
 34 35  1  0
 35 36  1  0
 35 37  1  0
 35 38  1  0
 36 39  2  0
 36 40  1  0
 37 38  1  0
  7 41  1  0
  8 42  1  0
 10 43  1  0
 11 44  1  0
 13 45  1  0
 13 46  1  0
 14 47  1  0
 14 48  1  0
 16 49  1  0
 17 50  1  0
 17 51  1  0
 18 52  1  0
 18 53  1  0
 22 54  1  0
 25 55  1  0
 26 56  1  0
 27 57  1  0
 28 58  1  0
 29 59  1  0
 29 60  1  0
 29 61  1  0
 31 62  1  0
 32 63  1  0
 33 64  1  0
 33 65  1  0
 33 66  1  0
 37 67  1  0
 37 68  1  0
 38 69  1  0
 38 70  1  0
 40 71  1  0
M  END
> <Name>
10

> <AbsoluteEnergy>
81.3933

> <Clean Energy>
144.703

> <Column 1>
10

> <ConfNumber>
91

> <Filter_Pass>
Failed

> <IC50_nM>
62.87

> <LogP>
6.32

> <MOL_NUMBER>
7

> <QSAR_Score_pIC50>
7.202

> <RelativeEnergy>
11.0236

> <SMILES>
COc1cc(C)ccc1NC(=O)C1(c2ccccc2C(F)(F)F)CCN(c2ccc(C3(C(=O)O)CC3)cc2)CC1

> <Toxicity_Alerts>
DILI, Basic N (hERG Warning)

> <Type>
Analog

> <POSE_NUMBER>
32

> <LibDockScore>
100.8939

> <HotSpots>
-2.53,-21.12,45.98,A,16,7
-5.13,-23.32,51.38,A,54,18
1.67,-24.32,50.98,A,50,26

$$$$
10
  SciTegic05082609073D

 71 75  0  0  0  0            999 V2000
   -3.8110  -31.0283   52.6918 F   0  0  0  1  0  0
   -4.7475  -31.9431   53.1172 C   0  0  0  1  0  0
   -4.3174  -33.1911   52.7105 F   0  0  0  1  0  0
   -4.7551  -31.9660   54.4840 F   0  0  0  1  0  0
   -6.0918  -31.5939   52.4861 C   0  0  0  1  0  0
   -7.1251  -30.7574   53.0592 C   0  0  0  1  0  0
   -6.3067  -32.1559   51.2017 C   0  0  0  1  0  0
   -8.3244  -30.6073   52.3169 C   0  0  0  1  0  0
   -7.0212  -30.0131   54.4085 C   0  0  0  1  0  0
   -7.5006  -31.9696   50.5000 C   0  0  0  1  0  0
   -8.5178  -31.2025   51.0664 C   0  0  0  1  0  0
   -5.7443  -29.1561   54.5161 C   0  0  0  1  0  0
   -7.0994  -31.0519   55.5800 C   0  0  0  1  0  0
   -8.1416  -28.9305   54.6740 C   0  0  0  1  0  0
   -5.1539  -29.1632   55.5722 O   0  0  0  1  0  0
   -5.2845  -28.3858   53.4510 N   0  0  0  1  0  0
   -8.5111  -31.5688   55.9096 C   0  0  0  1  0  0
   -9.5141  -29.3734   55.2511 C   0  0  0  1  0  0
   -4.1118  -27.6268   53.3897 C   0  0  0  1  0  0
   -9.4036  -30.4411   56.2830 N   0  0  0  1  0  0
   -2.8854  -28.0175   54.0023 C   0  0  0  1  0  0
   -4.1516  -26.4181   52.6536 C   0  0  0  1  0  0
  -10.1015  -30.3932   57.4929 C   0  0  0  1  0  0
   -2.7990  -29.2017   54.6031 O   0  0  0  1  0  0
   -1.7725  -27.1479   53.9305 C   0  0  0  1  0  0
   -3.0256  -25.5868   52.5663 C   0  0  0  1  0  0
  -10.3256  -29.1597   58.1511 C   0  0  0  1  0  0
  -10.6105  -31.5711   58.0926 C   0  0  0  1  0  0
   -1.6502  -29.6199   55.3465 C   0  0  0  1  0  0
   -1.8369  -25.9378   53.2209 C   0  0  0  1  0  0
  -11.0629  -29.1018   59.3467 C   0  0  0  1  0  0
  -11.3432  -31.5110   59.2917 C   0  0  0  1  0  0
   -0.6548  -25.0275   53.1524 C   0  0  0  1  0  0
  -11.5881  -30.2751   59.9146 C   0  0  0  1  0  0
  -12.4258  -30.2112   61.1771 C   0  0  0  1  0  0
  -13.9311  -30.1448   60.8985 C   0  0  0  1  0  0
  -11.8731  -29.4765   62.3894 C   0  0  0  1  0  0
  -11.9525  -30.9844   62.3992 C   0  0  0  1  0  0
  -14.7121  -30.0750   61.8243 O   0  0  0  1  0  0
  -14.3509  -30.1673   59.6297 O   0  0  0  1  0  0
   -5.5153  -32.7521   50.7475 H   0  0
   -9.1280  -30.0034   52.7384 H   0  0
   -7.6357  -32.4207   49.5170 H   0  0
   -9.4605  -31.0672   50.5363 H   0  0
   -6.4673  -31.9046   55.3322 H   0  0
   -6.6783  -30.5986   56.4774 H   0  0
   -8.3282  -28.4027   53.7388 H   0  0
   -7.7272  -28.1753   55.3419 H   0  0
   -5.9012  -28.3733   52.5767 H   0  0
   -8.4542  -32.2728   56.7398 H   0  0
   -8.9213  -32.0794   55.0383 H   0  0
  -10.0088  -28.5079   55.6919 H   0  0
  -10.1417  -29.7352   54.4366 H   0  0
   -5.0722  -26.1290   52.1466 H   0  0
   -0.8465  -27.4223   54.4359 H   0  0
   -3.0749  -24.6645   51.9874 H   0  0
   -9.9207  -28.2419   57.7247 H   0  0
  -10.4321  -32.5364   57.6188 H   0  0
   -1.5193  -28.8316   56.0878 H   0  0
   -0.8297  -29.5177   54.6362 H   0  0
   -1.7156  -30.6153   55.7859 H   0  0
  -11.2281  -28.1418   59.8358 H   0  0
  -11.7234  -32.4286   59.7407 H   0  0
    0.1457  -25.6452   52.7453 H   0  0
   -0.4018  -24.8253   54.1932 H   0  0
   -0.8206  -24.1181   52.5748 H   0  0
  -12.6698  -29.0279   62.9829 H   0  0
  -10.8549  -29.1283   62.2155 H   0  0
  -10.9765  -31.4397   62.2313 H   0  0
  -12.7920  -31.3392   62.9971 H   0  0
  -13.9491  -31.0475   59.2219 H   0  0
  1  2  1  0
  2  3  1  0
  2  4  1  0
  2  5  1  0
  5  6  2  0
  5  7  1  0
  6  8  1  0
  6  9  1  0
  7 10  2  0
  8 11  2  0
  9 12  1  0
  9 13  1  0
  9 14  1  0
 10 11  1  0
 12 15  2  0
 12 16  1  0
 13 17  1  0
 14 18  1  0
 16 19  1  0
 17 20  1  0
 18 20  1  0
 19 21  2  0
 19 22  1  0
 20 23  1  0
 21 24  1  0
 21 25  1  0
 22 26  2  0
 23 27  2  0
 23 28  1  0
 24 29  1  0
 25 30  2  0
 26 30  1  0
 27 31  1  0
 28 32  2  0
 30 33  1  0
 31 34  2  0
 32 34  1  0
 34 35  1  0
 35 36  1  0
 35 37  1  0
 35 38  1  0
 36 39  2  0
 36 40  1  0
 37 38  1  0
  7 41  1  0
  8 42  1  0
 10 43  1  0
 11 44  1  0
 13 45  1  0
 13 46  1  0
 14 47  1  0
 14 48  1  0
 16 49  1  0
 17 50  1  0
 17 51  1  0
 18 52  1  0
 18 53  1  0
 22 54  1  0
 25 55  1  0
 26 56  1  0
 27 57  1  0
 28 58  1  0
 29 59  1  0
 29 60  1  0
 29 61  1  0
 31 62  1  0
 32 63  1  0
 33 64  1  0
 33 65  1  0
 33 66  1  0
 37 67  1  0
 37 68  1  0
 38 69  1  0
 38 70  1  0
 40 71  1  0
M  END
> <Name>
10

> <AbsoluteEnergy>
79.3037

> <Clean Energy>
144.703

> <Column 1>
10

> <ConfNumber>
69

> <Filter_Pass>
Failed

> <IC50_nM>
62.87

> <LogP>
6.32

> <MOL_NUMBER>
7

> <QSAR_Score_pIC50>
7.202

> <RelativeEnergy>
8.93404

> <SMILES>
COc1cc(C)ccc1NC(=O)C1(c2ccccc2C(F)(F)F)CCN(c2ccc(C3(C(=O)O)CC3)cc2)CC1

> <Toxicity_Alerts>
DILI, Basic N (hERG Warning)

> <Type>
Analog

> <POSE_NUMBER>
33

> <LibDockScore>
99.9544

> <HotSpots>
-8.53,-31.32,51.19,A,51,11
-1.73,-29.72,55.59,A,76,29
-0.33,-25.52,53.19,A,64,33

$$$$
10
  SciTegic05082609073D

 71 75  0  0  0  0            999 V2000
   -5.4225  -24.3888   49.2111 F   0  0  0  1  0  0
   -4.9336  -23.1451   49.5000 C   0  0  0  1  0  0
   -4.8636  -23.0077   50.8631 F   0  0  0  1  0  0
   -5.8648  -22.2310   49.0429 F   0  0  0  1  0  0
   -3.5552  -22.9133   48.8980 C   0  0  0  1  0  0
   -2.3491  -23.6246   49.2672 C   0  0  0  1  0  0
   -3.4757  -21.9038   47.9015 C   0  0  0  1  0  0
   -1.1597  -23.2881   48.5595 C   0  0  0  1  0  0
   -2.2623  -24.7070   50.3725 C   0  0  0  1  0  0
   -2.2830  -21.6033   47.2415 C   0  0  0  1  0  0
   -1.1247  -22.3014   47.5674 C   0  0  0  1  0  0
   -3.1121  -25.9437   50.0146 C   0  0  0  1  0  0
   -2.5054  -24.0818   51.8027 C   0  0  0  1  0  0
   -0.8233  -25.3446   50.5161 C   0  0  0  1  0  0
   -2.9005  -26.5169   48.9682 O   0  0  0  1  0  0
   -4.0746  -26.4196   50.8880 N   0  0  0  1  0  0
   -1.8797  -24.8208   53.0151 C   0  0  0  1  0  0
   -0.6937  -26.4652   51.5877 C   0  0  0  1  0  0
   -4.6176  -27.6903   50.9720 C   0  0  0  1  0  0
   -1.6385  -26.2529   52.7135 N   0  0  0  1  0  0
   -3.8454  -28.8629   50.7545 C   0  0  0  1  0  0
   -5.9657  -27.8039   51.3664 C   0  0  0  1  0  0
   -2.2947  -27.3077   53.3518 C   0  0  0  1  0  0
   -2.5655  -28.7444   50.4084 O   0  0  0  1  0  0
   -4.4507  -30.1244   50.9588 C   0  0  0  1  0  0
   -6.5403  -29.0622   51.5817 C   0  0  0  1  0  0
   -1.6342  -28.5274   53.6238 C   0  0  0  1  0  0
   -3.6576  -27.1923   53.7099 C   0  0  0  1  0  0
   -1.7296  -29.8749   50.1400 C   0  0  0  1  0  0
   -5.7864  -30.2296   51.3780 C   0  0  0  1  0  0
   -2.3259  -29.6074   54.2054 C   0  0  0  1  0  0
   -4.3479  -28.2662   54.2898 C   0  0  0  1  0  0
   -6.3907  -31.5759   51.6086 C   0  0  0  1  0  0
   -3.6904  -29.4873   54.5318 C   0  0  0  1  0  0
   -4.4458  -30.6672   55.1188 C   0  0  0  1  0  0
   -4.1841  -30.9413   56.6113 C   0  0  0  1  0  0
   -4.7148  -31.8211   54.1615 C   0  0  0  1  0  0
   -5.8534  -30.9378   54.6104 C   0  0  0  1  0  0
   -3.7801  -30.0438   57.3165 O   0  0  0  1  0  0
   -4.4080  -32.1545   57.1413 O   0  0  0  1  0  0
   -4.3757  -21.3455   47.6438 H   0  0
   -0.2396  -23.8205   48.8003 H   0  0
   -2.2594  -20.8273   46.4764 H   0  0
   -0.1908  -22.0802   47.0507 H   0  0
   -2.1318  -23.0579   51.7976 H   0  0
   -3.5803  -24.0066   51.9671 H   0  0
   -0.5252  -25.7525   49.5503 H   0  0
   -0.1129  -24.5531   50.7550 H   0  0
   -4.4500  -25.7088   51.5942 H   0  0
   -2.5525  -24.7443   53.8693 H   0  0
   -0.9335  -24.3463   53.2751 H   0  0
   -0.9007  -27.4300   51.1247 H   0  0
    0.3254  -26.4772   51.9743 H   0  0
   -6.5660  -26.9047   51.5050 H   0  0
   -3.8701  -31.0309   50.7878 H   0  0
   -7.5774  -29.1363   51.9089 H   0  0
   -0.5770  -28.6333   53.3805 H   0  0
   -4.1805  -26.2526   53.5322 H   0  0
   -2.2633  -30.4180   49.3601 H   0  0
   -1.8021  -30.4771   51.0457 H   0  0
   -0.7016  -29.6364   49.8671 H   0  0
   -1.8018  -30.5422   54.4042 H   0  0
   -5.3994  -28.1550   54.5547 H   0  0
   -5.7410  -32.0560   52.3404 H   0  0
   -6.2623  -32.1088   50.6664 H   0  0
   -7.4313  -31.5446   51.9316 H   0  0
   -4.7194  -32.7790   54.6815 H   0  0
   -4.3948  -31.5812   53.1475 H   0  0
   -6.1421  -30.2283   53.8349 H   0  0
   -6.4656  -31.4249   55.3694 H   0  0
   -3.8321  -32.8031   56.5496 H   0  0
  1  2  1  0
  2  3  1  0
  2  4  1  0
  2  5  1  0
  5  6  2  0
  5  7  1  0
  6  8  1  0
  6  9  1  0
  7 10  2  0
  8 11  2  0
  9 12  1  0
  9 13  1  0
  9 14  1  0
 10 11  1  0
 12 15  2  0
 12 16  1  0
 13 17  1  0
 14 18  1  0
 16 19  1  0
 17 20  1  0
 18 20  1  0
 19 21  2  0
 19 22  1  0
 20 23  1  0
 21 24  1  0
 21 25  1  0
 22 26  2  0
 23 27  2  0
 23 28  1  0
 24 29  1  0
 25 30  2  0
 26 30  1  0
 27 31  1  0
 28 32  2  0
 30 33  1  0
 31 34  2  0
 32 34  1  0
 34 35  1  0
 35 36  1  0
 35 37  1  0
 35 38  1  0
 36 39  2  0
 36 40  1  0
 37 38  1  0
  7 41  1  0
  8 42  1  0
 10 43  1  0
 11 44  1  0
 13 45  1  0
 13 46  1  0
 14 47  1  0
 14 48  1  0
 16 49  1  0
 17 50  1  0
 17 51  1  0
 18 52  1  0
 18 53  1  0
 22 54  1  0
 25 55  1  0
 26 56  1  0
 27 57  1  0
 28 58  1  0
 29 59  1  0
 29 60  1  0
 29 61  1  0
 31 62  1  0
 32 63  1  0
 33 64  1  0
 33 65  1  0
 33 66  1  0
 37 67  1  0
 37 68  1  0
 38 69  1  0
 38 70  1  0
 40 71  1  0
M  END
> <Name>
10

> <AbsoluteEnergy>
81.8666

> <Clean Energy>
144.703

> <Column 1>
10

> <ConfNumber>
94

> <Filter_Pass>
Failed

> <IC50_nM>
62.87

> <LogP>
6.32

> <MOL_NUMBER>
7

> <QSAR_Score_pIC50>
7.202

> <RelativeEnergy>
11.4969

> <SMILES>
COc1cc(C)ccc1NC(=O)C1(c2ccccc2C(F)(F)F)CCN(c2ccc(C3(C(=O)O)CC3)cc2)CC1

> <Toxicity_Alerts>
DILI, Basic N (hERG Warning)

> <Type>
Analog

> <POSE_NUMBER>
34

> <LibDockScore>
97.7242

> <HotSpots>
-6.13,-22.12,49.98,A,41,4
-3.53,-22.32,46.59,A,20,10
-4.33,-31.92,57.78,P,73,40

$$$$
10
  SciTegic05082609073D

 71 75  0  0  0  0            999 V2000
   -0.0923  -25.9205   52.0583 F   0  0  0  1  0  0
   -1.2565  -25.9403   52.7894 C   0  0  0  1  0  0
   -1.2034  -24.9080   53.7001 F   0  0  0  1  0  0
   -1.3177  -27.0973   53.5181 F   0  0  0  1  0  0
   -2.4199  -25.7338   51.8357 C   0  0  0  1  0  0
   -3.2322  -26.7687   51.2448 C   0  0  0  1  0  0
   -2.7022  -24.3804   51.5264 C   0  0  0  1  0  0
   -4.3831  -26.3482   50.5230 C   0  0  0  1  0  0
   -2.9508  -28.2909   51.3503 C   0  0  0  1  0  0
   -3.8064  -24.0158   50.7526 C   0  0  0  1  0  0
   -4.6624  -25.0017   50.2700 C   0  0  0  1  0  0
   -3.4480  -28.7953   52.7147 C   0  0  0  1  0  0
   -3.7172  -29.1196   50.2356 C   0  0  0  1  0  0
   -1.4204  -28.6472   51.0943 C   0  0  0  1  0  0
   -3.9601  -28.0194   53.4939 O   0  0  0  1  0  0
   -3.3008  -30.1289   53.0599 N   0  0  0  1  0  0
   -3.3355  -28.7478   48.7673 C   0  0  0  1  0  0
   -1.0561  -28.9722   49.6276 C   0  0  0  1  0  0
   -4.1404  -30.8453   53.9038 C   0  0  0  1  0  0
   -1.9629  -28.1761   48.7770 N   0  0  0  1  0  0
   -5.5312  -30.5790   54.0125 C   0  0  0  1  0  0
   -3.5685  -31.8813   54.6722 C   0  0  0  1  0  0
   -1.6276  -26.9343   48.2455 C   0  0  0  1  0  0
   -6.0744  -29.6437   53.2345 O   0  0  0  1  0  0
   -6.3003  -31.3264   54.9354 C   0  0  0  1  0  0
   -4.3484  -32.6218   55.5705 C   0  0  0  1  0  0
   -0.4623  -26.2723   48.6971 C   0  0  0  1  0  0
   -2.4491  -26.2800   47.2991 C   0  0  0  1  0  0
   -7.4552  -29.2784   53.3095 C   0  0  0  1  0  0
   -5.7170  -32.3420   55.7127 C   0  0  0  1  0  0
   -0.2037  -24.9472   48.3291 C   0  0  0  1  0  0
   -2.1903  -24.9484   46.9311 C   0  0  0  1  0  0
   -6.5571  -33.1128   56.6791 C   0  0  0  1  0  0
   -1.0951  -24.2643   47.4872 C   0  0  0  1  0  0
   -0.8805  -22.7962   47.2175 C   0  0  0  1  0  0
   -2.1815  -22.0102   47.3424 C   0  0  0  1  0  0
    0.4014  -22.1333   47.6937 C   0  0  0  1  0  0
    0.1792  -22.3604   46.2174 C   0  0  0  1  0  0
   -2.5571  -21.3282   46.4165 O   0  0  0  1  0  0
   -2.8862  -22.0997   48.4731 O   0  0  0  1  0  0
   -2.0390  -23.6016   51.9029 H   0  0
   -5.0745  -27.1051   50.1525 H   0  0
   -3.9965  -22.9662   50.5281 H   0  0
   -5.5473  -24.7250   49.6969 H   0  0
   -4.7896  -28.9734   50.3645 H   0  0
   -3.5189  -30.1803   50.3895 H   0  0
   -1.1512  -29.5013   51.7156 H   0  0
   -0.8067  -27.8099   51.4266 H   0  0
   -2.4678  -30.6529   52.6399 H   0  0
   -4.0374  -28.0086   48.3812 H   0  0
   -3.3552  -29.6430   48.1457 H   0  0
   -0.0219  -28.6885   49.4325 H   0  0
   -1.2067  -30.0345   49.4354 H   0  0
   -2.5077  -32.1083   54.5658 H   0  0
   -7.3631  -31.1110   55.0455 H   0  0
   -3.8917  -33.4167   56.1601 H   0  0
    0.2426  -26.8004   49.3393 H   0  0
   -3.2889  -26.8118   46.8518 H   0  0
   -7.5970  -29.0026   54.3544 H   0  0
   -7.9839  -30.2200   53.1611 H   0  0
   -7.7677  -28.4984   52.6152 H   0  0
    0.6911  -24.4448   48.6967 H   0  0
   -2.8392  -24.4457   46.2140 H   0  0
   -7.3658  -33.5320   56.0805 H   0  0
   -6.9979  -32.3613   57.3341 H   0  0
   -6.0083  -33.8760   57.2308 H   0  0
    1.0969  -22.8608   48.1122 H   0  0
    0.2343  -21.0922   47.9701 H   0  0
   -0.1061  -21.4402   45.7075 H   0  0
    0.7551  -23.2098   45.8499 H   0  0
   -2.2205  -21.8145   49.2334 H   0  0
  1  2  1  0
  2  3  1  0
  2  4  1  0
  2  5  1  0
  5  6  2  0
  5  7  1  0
  6  8  1  0
  6  9  1  0
  7 10  2  0
  8 11  2  0
  9 12  1  0
  9 13  1  0
  9 14  1  0
 10 11  1  0
 12 15  2  0
 12 16  1  0
 13 17  1  0
 14 18  1  0
 16 19  1  0
 17 20  1  0
 18 20  1  0
 19 21  2  0
 19 22  1  0
 20 23  1  0
 21 24  1  0
 21 25  1  0
 22 26  2  0
 23 27  2  0
 23 28  1  0
 24 29  1  0
 25 30  2  0
 26 30  1  0
 27 31  1  0
 28 32  2  0
 30 33  1  0
 31 34  2  0
 32 34  1  0
 34 35  1  0
 35 36  1  0
 35 37  1  0
 35 38  1  0
 36 39  2  0
 36 40  1  0
 37 38  1  0
  7 41  1  0
  8 42  1  0
 10 43  1  0
 11 44  1  0
 13 45  1  0
 13 46  1  0
 14 47  1  0
 14 48  1  0
 16 49  1  0
 17 50  1  0
 17 51  1  0
 18 52  1  0
 18 53  1  0
 22 54  1  0
 25 55  1  0
 26 56  1  0
 27 57  1  0
 28 58  1  0
 29 59  1  0
 29 60  1  0
 29 61  1  0
 31 62  1  0
 32 63  1  0
 33 64  1  0
 33 65  1  0
 33 66  1  0
 37 67  1  0
 37 68  1  0
 38 69  1  0
 38 70  1  0
 40 71  1  0
M  END
> <Name>
10

> <AbsoluteEnergy>
83.3357

> <Clean Energy>
144.703

> <Column 1>
10

> <ConfNumber>
108

> <Filter_Pass>
Failed

> <IC50_nM>
62.87

> <LogP>
6.32

> <MOL_NUMBER>
7

> <QSAR_Score_pIC50>
7.202

> <RelativeEnergy>
12.966

> <SMILES>
COc1cc(C)ccc1NC(=O)C1(c2ccccc2C(F)(F)F)CCN(c2ccc(C3(C(=O)O)CC3)cc2)CC1

> <Toxicity_Alerts>
DILI, Basic N (hERG Warning)

> <Type>
Analog

> <POSE_NUMBER>
35

> <LibDockScore>
97.4559

> <HotSpots>
-1.93,-29.12,49.19,A,34,18
-4.33,-32.92,55.19,A,75,26
0.27,-22.52,46.78,A,23,37

$$$$
10
  SciTegic05082609073D

 71 75  0  0  0  0            999 V2000
   -4.8128  -30.1656   53.0034 F   0  0  0  1  0  0
   -5.8082  -31.0975   53.0505 C   0  0  0  1  0  0
   -5.2842  -32.2373   52.4817 F   0  0  0  1  0  0
   -6.1077  -31.3876   54.3573 F   0  0  0  1  0  0
   -7.0743  -30.6481   52.3420 C   0  0  0  1  0  0
   -7.6561  -29.3293   52.4095 C   0  0  0  1  0  0
   -7.7149  -31.6380   51.5554 C   0  0  0  1  0  0
   -8.7805  -29.0739   51.5758 C   0  0  0  1  0  0
   -7.1445  -28.1778   53.3047 C   0  0  0  1  0  0
   -8.8460  -31.3544   50.7864 C   0  0  0  1  0  0
   -9.3712  -30.0657   50.7857 C   0  0  0  1  0  0
   -6.0073  -27.4130   52.6169 C   0  0  0  1  0  0
   -8.2266  -27.0938   53.6490 C   0  0  0  1  0  0
   -6.7156  -28.6615   54.7258 C   0  0  0  1  0  0
   -4.8886  -27.4756   53.0759 O   0  0  0  1  0  0
   -6.2674  -26.6478   51.4897 N   0  0  0  1  0  0
   -9.4160  -27.5920   54.5032 C   0  0  0  1  0  0
   -7.8545  -29.2899   55.5437 C   0  0  0  1  0  0
   -5.4197  -25.7088   50.9158 C   0  0  0  1  0  0
   -8.9756  -28.3228   55.7296 N   0  0  0  1  0  0
   -4.0840  -26.0072   50.5330 C   0  0  0  1  0  0
   -5.9336  -24.4127   50.6927 C   0  0  0  1  0  0
   -9.5771  -28.1339   56.9730 C   0  0  0  1  0  0
   -3.6238  -27.2454   50.7058 O   0  0  0  1  0  0
   -3.2905  -24.9841   49.9614 C   0  0  0  1  0  0
   -5.1344  -23.4138   50.1211 C   0  0  0  1  0  0
   -9.9279  -29.2475   57.7715 C   0  0  0  1  0  0
   -9.8534  -26.8379   57.4681 C   0  0  0  1  0  0
   -2.3192  -27.6528   50.2766 C   0  0  0  1  0  0
   -3.8074  -23.6924   49.7547 C   0  0  0  1  0  0
  -10.5365  -29.0714   59.0251 C   0  0  0  1  0  0
  -10.4690  -26.6630   58.7189 C   0  0  0  1  0  0
   -2.9606  -22.6196   49.1484 C   0  0  0  1  0  0
  -10.8107  -27.7785   59.5030 C   0  0  0  1  0  0
  -11.4730  -27.5918   60.8464 C   0  0  0  1  0  0
  -12.9892  -27.5901   60.7608 C   0  0  0  1  0  0
  -10.8094  -26.7043   61.8876 C   0  0  0  1  0  0
  -10.8291  -28.2014   62.0824 C   0  0  0  1  0  0
  -13.5683  -26.5377   60.6036 O   0  0  0  1  0  0
  -13.6418  -28.7468   60.8594 O   0  0  0  1  0  0
   -7.3128  -32.6511   51.5504 H   0  0
   -9.1975  -28.0671   51.5519 H   0  0
   -9.3144  -32.1377   50.1905 H   0  0
  -10.2402  -29.8298   50.1714 H   0  0
   -8.6170  -26.6823   52.7182 H   0  0
   -7.7412  -26.2725   54.1763 H   0  0
   -5.9142  -29.3929   54.6215 H   0  0
   -6.3126  -27.8140   55.2802 H   0  0
   -7.2150  -26.7954   51.0151 H   0  0
  -10.0241  -26.7373   54.7994 H   0  0
  -10.0359  -28.2549   53.8996 H   0  0
   -7.4744  -29.5902   56.5202 H   0  0
   -8.2254  -30.1735   55.0244 H   0  0
   -6.9637  -24.1867   50.9683 H   0  0
   -2.2610  -25.2009   49.6764 H   0  0
   -5.5441  -22.4166   49.9602 H   0  0
   -9.7234  -30.2551   57.4094 H   0  0
   -9.5857  -25.9651   56.8725 H   0  0
   -1.6482  -26.9487   50.7687 H   0  0
   -2.3034  -27.4091   49.2143 H   0  0
   -2.0690  -28.6941   50.4796 H   0  0
  -10.7970  -29.9404   59.6293 H   0  0
  -10.6825  -25.6580   59.0828 H   0  0
   -2.6279  -23.0345   48.1969 H   0  0
   -2.0840  -22.5614   49.7937 H   0  0
   -3.4649  -21.6599   49.0358 H   0  0
  -11.5465  -26.2070   62.5180 H   0  0
   -9.8331  -26.3552   61.5514 H   0  0
   -9.8631  -28.6499   61.8504 H   0  0
  -11.5775  -28.5019   62.8157 H   0  0
  -13.3351  -29.1572   61.7759 H   0  0
  1  2  1  0
  2  3  1  0
  2  4  1  0
  2  5  1  0
  5  6  2  0
  5  7  1  0
  6  8  1  0
  6  9  1  0
  7 10  2  0
  8 11  2  0
  9 12  1  0
  9 13  1  0
  9 14  1  0
 10 11  1  0
 12 15  2  0
 12 16  1  0
 13 17  1  0
 14 18  1  0
 16 19  1  0
 17 20  1  0
 18 20  1  0
 19 21  2  0
 19 22  1  0
 20 23  1  0
 21 24  1  0
 21 25  1  0
 22 26  2  0
 23 27  2  0
 23 28  1  0
 24 29  1  0
 25 30  2  0
 26 30  1  0
 27 31  1  0
 28 32  2  0
 30 33  1  0
 31 34  2  0
 32 34  1  0
 34 35  1  0
 35 36  1  0
 35 37  1  0
 35 38  1  0
 36 39  2  0
 36 40  1  0
 37 38  1  0
  7 41  1  0
  8 42  1  0
 10 43  1  0
 11 44  1  0
 13 45  1  0
 13 46  1  0
 14 47  1  0
 14 48  1  0
 16 49  1  0
 17 50  1  0
 17 51  1  0
 18 52  1  0
 18 53  1  0
 22 54  1  0
 25 55  1  0
 26 56  1  0
 27 57  1  0
 28 58  1  0
 29 59  1  0
 29 60  1  0
 29 61  1  0
 31 62  1  0
 32 63  1  0
 33 64  1  0
 33 65  1  0
 33 66  1  0
 37 67  1  0
 37 68  1  0
 38 69  1  0
 38 70  1  0
 40 71  1  0
M  END
> <Name>
10

> <AbsoluteEnergy>
71.5141

> <Clean Energy>
144.703

> <Column 1>
10

> <ConfNumber>
3

> <Filter_Pass>
Failed

> <IC50_nM>
62.87

> <LogP>
6.32

> <MOL_NUMBER>
7

> <QSAR_Score_pIC50>
7.202

> <RelativeEnergy>
1.1444

> <SMILES>
COc1cc(C)ccc1NC(=O)C1(c2ccccc2C(F)(F)F)CCN(c2ccc(C3(C(=O)O)CC3)cc2)CC1

> <Toxicity_Alerts>
DILI, Basic N (hERG Warning)

> <Type>
Analog

> <POSE_NUMBER>
36

> <LibDockScore>
93.7068

> <HotSpots>
-6.53,-30.72,51.78,A,56,7
-5.33,-24.12,49.78,A,36,22
-2.53,-22.32,48.19,A,29,33

$$$$
10
  SciTegic05082609073D

 71 75  0  0  0  0            999 V2000
   -1.3770  -24.3042   51.4696 F   0  0  0  1  0  0
   -1.3139  -25.4412   52.2184 C   0  0  0  1  0  0
    0.0304  -25.6730   52.4182 F   0  0  0  1  0  0
   -1.8938  -25.2172   53.4434 F   0  0  0  1  0  0
   -2.0081  -26.6395   51.5934 C   0  0  0  1  0  0
   -3.2345  -26.6027   50.8320 C   0  0  0  1  0  0
   -1.3727  -27.8894   51.8038 C   0  0  0  1  0  0
   -3.7066  -27.8312   50.2934 C   0  0  0  1  0  0
   -4.0497  -25.3204   50.5474 C   0  0  0  1  0  0
   -1.8837  -29.0781   51.2754 C   0  0  0  1  0  0
   -3.0481  -29.0448   50.5127 C   0  0  0  1  0  0
   -3.4378  -24.6928   49.2920 C   0  0  0  1  0  0
   -5.5597  -25.5588   50.1781 C   0  0  0  1  0  0
   -4.1882  -24.4022   51.8156 C   0  0  0  1  0  0
   -3.2902  -25.4111   48.3257 O   0  0  0  1  0  0
   -3.0428  -23.3660   49.2361 N   0  0  0  1  0  0
   -6.4749  -26.0516   51.3372 C   0  0  0  1  0  0
   -4.9131  -25.0577   53.0210 C   0  0  0  1  0  0
   -2.3353  -22.8205   48.1732 C   0  0  0  1  0  0
   -5.6922  -26.2553   52.5902 N   0  0  0  1  0  0
   -0.9751  -23.1693   47.9377 C   0  0  0  1  0  0
   -2.9730  -21.8908   47.3253 C   0  0  0  1  0  0
   -5.5987  -27.5037   53.2015 C   0  0  0  1  0  0
   -0.3625  -23.9965   48.7861 O   0  0  0  1  0  0
   -0.3086  -22.6139   46.8226 C   0  0  0  1  0  0
   -2.2881  -21.3372   46.2338 C   0  0  0  1  0  0
   -4.3855  -27.9201   53.7966 C   0  0  0  1  0  0
   -6.6902  -28.4037   53.1970 C   0  0  0  1  0  0
    1.0128  -24.3675   48.6581 C   0  0  0  1  0  0
   -0.9580  -21.7021   45.9721 C   0  0  0  1  0  0
   -4.2166  -29.2427   54.2247 C   0  0  0  1  0  0
   -6.5213  -29.7306   53.6251 C   0  0  0  1  0  0
   -0.2452  -21.1197   44.7960 C   0  0  0  1  0  0
   -5.2638  -30.1669   54.0770 C   0  0  0  1  0  0
   -5.0224  -31.6274   54.3697 C   0  0  0  1  0  0
   -4.8860  -32.4630   53.0935 C   0  0  0  1  0  0
   -4.1834  -32.0037   55.5807 C   0  0  0  1  0  0
   -5.6733  -32.2535   55.5924 C   0  0  0  1  0  0
   -4.0114  -33.2965   53.0241 O   0  0  0  1  0  0
   -5.7304  -32.2621   52.0760 O   0  0  0  1  0  0
   -0.4580  -27.9243   52.3956 H   0  0
   -4.6134  -27.8265   49.6886 H   0  0
   -1.3745  -30.0242   51.4590 H   0  0
   -3.4465  -29.9655   50.0864 H   0  0
   -5.9711  -24.6292   49.7849 H   0  0
   -5.6085  -26.2857   49.3673 H   0  0
   -3.1925  -24.0936   52.1341 H   0  0
   -4.7273  -23.4971   51.5358 H   0  0
   -3.2966  -22.7273   50.0562 H   0  0
   -6.9440  -26.9929   51.0510 H   0  0
   -7.2553  -25.3125   51.5184 H   0  0
   -4.1750  -25.3585   53.7646 H   0  0
   -5.5905  -24.3328   53.4723 H   0  0
   -4.0055  -21.6006   47.5198 H   0  0
    0.7242  -22.8965   46.6187 H   0  0
   -2.7911  -20.6199   45.5853 H   0  0
   -3.5734  -27.2042   53.9234 H   0  0
   -7.6694  -28.0648   52.8588 H   0  0
    1.5396  -23.4134   48.6441 H   0  0
    1.0799  -24.7743   47.6491 H   0  0
    1.3844  -25.0511   49.4214 H   0  0
   -3.2730  -29.5547   54.6723 H   0  0
   -7.3643  -30.4213   53.6070 H   0  0
    0.0874  -21.9821   44.2183 H   0  0
    0.6468  -20.6540   45.2150 H   0  0
   -0.8449  -20.4254   44.2075 H   0  0
   -3.9181  -31.1272   56.1719 H   0  0
   -3.6230  -32.9226   55.4087 H   0  0
   -5.9057  -33.3056   55.4277 H   0  0
   -6.2010  -31.5097   56.1894 H   0  0
   -5.6370  -31.2413   51.8487 H   0  0
  1  2  1  0
  2  3  1  0
  2  4  1  0
  2  5  1  0
  5  6  2  0
  5  7  1  0
  6  8  1  0
  6  9  1  0
  7 10  2  0
  8 11  2  0
  9 12  1  0
  9 13  1  0
  9 14  1  0
 10 11  1  0
 12 15  2  0
 12 16  1  0
 13 17  1  0
 14 18  1  0
 16 19  1  0
 17 20  1  0
 18 20  1  0
 19 21  2  0
 19 22  1  0
 20 23  1  0
 21 24  1  0
 21 25  1  0
 22 26  2  0
 23 27  2  0
 23 28  1  0
 24 29  1  0
 25 30  2  0
 26 30  1  0
 27 31  1  0
 28 32  2  0
 30 33  1  0
 31 34  2  0
 32 34  1  0
 34 35  1  0
 35 36  1  0
 35 37  1  0
 35 38  1  0
 36 39  2  0
 36 40  1  0
 37 38  1  0
  7 41  1  0
  8 42  1  0
 10 43  1  0
 11 44  1  0
 13 45  1  0
 13 46  1  0
 14 47  1  0
 14 48  1  0
 16 49  1  0
 17 50  1  0
 17 51  1  0
 18 52  1  0
 18 53  1  0
 22 54  1  0
 25 55  1  0
 26 56  1  0
 27 57  1  0
 28 58  1  0
 29 59  1  0
 29 60  1  0
 29 61  1  0
 31 62  1  0
 32 63  1  0
 33 64  1  0
 33 65  1  0
 33 66  1  0
 37 67  1  0
 37 68  1  0
 38 69  1  0
 38 70  1  0
 40 71  1  0
M  END
> <Name>
10

> <AbsoluteEnergy>
86.9091

> <Clean Energy>
144.703

> <Column 1>
10

> <ConfNumber>
142

> <Filter_Pass>
Failed

> <IC50_nM>
62.87

> <LogP>
6.32

> <MOL_NUMBER>
7

> <QSAR_Score_pIC50>
7.202

> <RelativeEnergy>
16.5394

> <SMILES>
COc1cc(C)ccc1NC(=O)C1(c2ccccc2C(F)(F)F)CCN(c2ccc(C3(C(=O)O)CC3)cc2)CC1

> <Toxicity_Alerts>
DILI, Basic N (hERG Warning)

> <Type>
Analog

> <POSE_NUMBER>
37

> <LibDockScore>
90.3858

> <HotSpots>
-6.33,-26.32,51.98,A,57,18
-0.93,-23.32,46.98,A,25,25
-3.33,-33.72,54.98,P,58,39

$$$$
10
  SciTegic05082609073D

 71 75  0  0  0  0            999 V2000
   -4.3245  -28.3854   53.2784 F   0  0  0  1  0  0
   -3.1646  -28.3070   52.5629 C   0  0  0  1  0  0
   -2.7159  -29.6034   52.4289 F   0  0  0  1  0  0
   -2.2269  -27.6078   53.2842 F   0  0  0  1  0  0
   -3.3102  -27.6272   51.2112 C   0  0  0  1  0  0
   -4.2165  -26.5468   50.9048 C   0  0  0  1  0  0
   -2.4573  -28.1151   50.1903 C   0  0  0  1  0  0
   -4.2347  -26.0725   49.5645 C   0  0  0  1  0  0
   -5.1643  -25.8920   51.9388 C   0  0  0  1  0  0
   -2.4900  -27.6022   48.8927 C   0  0  0  1  0  0
   -3.3829  -26.5819   48.5777 C   0  0  0  1  0  0
   -6.3080  -26.8747   52.2113 C   0  0  0  1  0  0
   -5.8743  -24.5666   51.4579 C   0  0  0  1  0  0
   -4.3641  -25.3799   53.1909 C   0  0  0  1  0  0
   -6.7289  -27.5348   51.2853 O   0  0  0  1  0  0
   -6.8500  -27.0241   53.4782 N   0  0  0  1  0  0
   -4.9993  -23.2804   51.5210 C   0  0  0  1  0  0
   -3.2071  -24.4174   52.8169 C   0  0  0  1  0  0
   -7.7114  -28.0471   53.8603 C   0  0  0  1  0  0
   -3.5520  -23.6333   51.5886 N   0  0  0  1  0  0
   -7.4299  -29.4144   53.5875 C   0  0  0  1  0  0
   -8.8918  -27.7060   54.5547 C   0  0  0  1  0  0
   -2.6364  -23.4035   50.5572 C   0  0  0  1  0  0
   -6.2826  -29.7350   52.9906 O   0  0  0  1  0  0
   -8.3700  -30.3971   53.9744 C   0  0  0  1  0  0
   -9.8032  -28.6972   54.9458 C   0  0  0  1  0  0
   -1.2445  -23.3981   50.8133 C   0  0  0  1  0  0
   -3.0647  -23.2223   49.2192 C   0  0  0  1  0  0
   -5.9194  -31.0805   52.6689 C   0  0  0  1  0  0
   -9.5502  -30.0473   54.6515 C   0  0  0  1  0  0
   -0.3212  -23.4257   49.7567 C   0  0  0  1  0  0
   -2.1416  -23.2306   48.1635 C   0  0  0  1  0  0
  -10.5219  -31.1104   55.0506 C   0  0  0  1  0  0
   -0.7764  -23.4151   48.4280 C   0  0  0  1  0  0
    0.1826  -23.6426   47.2864 C   0  0  0  1  0  0
    0.3136  -25.1286   46.9453 C   0  0  0  1  0  0
    0.2394  -22.6150   46.1661 C   0  0  0  1  0  0
    1.4036  -22.7513   47.1203 C   0  0  0  1  0  0
    0.1958  -25.9551   47.8244 O   0  0  0  1  0  0
    0.5433  -25.4875   45.6832 O   0  0  0  1  0  0
   -1.7548  -28.9147   50.4253 H   0  0
   -4.9374  -25.2837   49.2959 H   0  0
   -1.8198  -27.9986   48.1299 H   0  0
   -3.4186  -26.1806   47.5649 H   0  0
   -6.7665  -24.4088   52.0638 H   0  0
   -6.2128  -24.7057   50.4312 H   0  0
   -3.9527  -26.2365   53.7249 H   0  0
   -5.0496  -24.8643   53.8635 H   0  0
   -6.5858  -26.2977   54.2181 H   0  0
   -5.1811  -22.6763   50.6322 H   0  0
   -5.2699  -22.7017   52.4041 H   0  0
   -2.3012  -24.9949   52.6324 H   0  0
   -3.0275  -23.7304   53.6438 H   0  0
   -9.0970  -26.6615   54.7893 H   0  0
   -8.1756  -31.4444   53.7433 H   0  0
  -10.7115  -28.4191   55.4803 H   0  0
   -0.8857  -23.3722   51.8422 H   0  0
   -4.1238  -23.0747   49.0078 H   0  0
   -6.7514  -31.4365   52.0613 H   0  0
   -5.9854  -31.6032   53.6231 H   0  0
   -4.9515  -31.1985   52.1816 H   0  0
    0.7479  -23.4553   49.9670 H   0  0
   -2.4847  -23.0938   47.1380 H   0  0
   -9.9457  -31.8065   55.6601 H   0  0
  -10.7735  -31.6265   54.1241 H   0  0
  -11.4026  -30.7322   55.5696 H   0  0
   -0.3676  -21.7391   46.3952 H   0  0
    0.4506  -23.0832   45.2047 H   0  0
    2.2345  -23.2911   46.6660 H   0  0
    1.4155  -21.9483   47.8573 H   0  0
    1.4202  -24.9781   45.4111 H   0  0
  1  2  1  0
  2  3  1  0
  2  4  1  0
  2  5  1  0
  5  6  2  0
  5  7  1  0
  6  8  1  0
  6  9  1  0
  7 10  2  0
  8 11  2  0
  9 12  1  0
  9 13  1  0
  9 14  1  0
 10 11  1  0
 12 15  2  0
 12 16  1  0
 13 17  1  0
 14 18  1  0
 16 19  1  0
 17 20  1  0
 18 20  1  0
 19 21  2  0
 19 22  1  0
 20 23  1  0
 21 24  1  0
 21 25  1  0
 22 26  2  0
 23 27  2  0
 23 28  1  0
 24 29  1  0
 25 30  2  0
 26 30  1  0
 27 31  1  0
 28 32  2  0
 30 33  1  0
 31 34  2  0
 32 34  1  0
 34 35  1  0
 35 36  1  0
 35 37  1  0
 35 38  1  0
 36 39  2  0
 36 40  1  0
 37 38  1  0
  7 41  1  0
  8 42  1  0
 10 43  1  0
 11 44  1  0
 13 45  1  0
 13 46  1  0
 14 47  1  0
 14 48  1  0
 16 49  1  0
 17 50  1  0
 17 51  1  0
 18 52  1  0
 18 53  1  0
 22 54  1  0
 25 55  1  0
 26 56  1  0
 27 57  1  0
 28 58  1  0
 29 59  1  0
 29 60  1  0
 29 61  1  0
 31 62  1  0
 32 63  1  0
 33 64  1  0
 33 65  1  0
 33 66  1  0
 37 67  1  0
 37 68  1  0
 38 69  1  0
 38 70  1  0
 40 71  1  0
M  END
> <Name>
10

> <AbsoluteEnergy>
84.2515

> <Clean Energy>
144.703

> <Column 1>
10

> <ConfNumber>
117

> <Filter_Pass>
Failed

> <IC50_nM>
62.87

> <LogP>
6.32

> <MOL_NUMBER>
7

> <QSAR_Score_pIC50>
7.202

> <RelativeEnergy>
13.8819

> <SMILES>
COc1cc(C)ccc1NC(=O)C1(c2ccccc2C(F)(F)F)CCN(c2ccc(C3(C(=O)O)CC3)cc2)CC1

> <Toxicity_Alerts>
DILI, Basic N (hERG Warning)

> <Type>
Analog

> <POSE_NUMBER>
38

> <LibDockScore>
85.6862

> <HotSpots>
-5.13,-23.32,51.38,A,54,17
-8.73,-28.12,54.38,A,70,22
-2.53,-22.32,48.19,A,29,32

$$$$
10
  SciTegic05082609073D

 71 75  0  0  0  0            999 V2000
   -3.4417  -23.2209   48.7656 F   0  0  0  1  0  0
   -4.3786  -24.1929   48.5116 C   0  0  0  1  0  0
   -5.3954  -23.5856   47.8025 F   0  0  0  1  0  0
   -3.8297  -25.1197   47.6684 F   0  0  0  1  0  0
   -4.8621  -24.8113   49.8217 C   0  0  0  1  0  0
   -4.1488  -25.8105   50.5864 C   0  0  0  1  0  0
   -6.1117  -24.3534   50.3108 C   0  0  0  1  0  0
   -4.7663  -26.3030   51.7672 C   0  0  0  1  0  0
   -2.7744  -26.3890   50.1970 C   0  0  0  1  0  0
   -6.6843  -24.8673   51.4810 C   0  0  0  1  0  0
   -6.0135  -25.8508   52.2065 C   0  0  0  1  0  0
   -1.8023  -25.2783   49.8052 C   0  0  0  1  0  0
   -1.9282  -27.0085   51.3994 C   0  0  0  1  0  0
   -3.0256  -27.5525   49.1658 C   0  0  0  1  0  0
   -1.6745  -24.3640   50.5936 O   0  0  0  1  0  0
   -1.0582  -25.2934   48.6365 N   0  0  0  1  0  0
   -1.7483  -28.5339   51.3353 C   0  0  0  1  0  0
   -3.6725  -28.8299   49.7926 C   0  0  0  1  0  0
   -0.3840  -24.1700   48.1875 C   0  0  0  1  0  0
   -3.0807  -29.1376   51.1282 N   0  0  0  1  0  0
    0.8683  -23.8224   48.7607 C   0  0  0  1  0  0
   -0.9384  -23.3771   47.1607 C   0  0  0  1  0  0
   -3.7529  -29.8247   52.1382 C   0  0  0  1  0  0
    1.3930  -24.6159   49.6973 O   0  0  0  1  0  0
    1.5190  -22.6520   48.3131 C   0  0  0  1  0  0
   -0.2669  -22.2239   46.7199 C   0  0  0  1  0  0
   -5.0359  -30.3880   51.9410 C   0  0  0  1  0  0
   -3.1519  -29.9467   53.4137 C   0  0  0  1  0  0
    2.6619  -24.3603   50.3055 C   0  0  0  1  0  0
    0.9606  -21.8523   47.2990 C   0  0  0  1  0  0
   -5.7192  -30.9966   53.0113 C   0  0  0  1  0  0
   -3.8238  -30.5681   54.4731 C   0  0  0  1  0  0
    1.6740  -20.6199   46.8436 C   0  0  0  1  0  0
   -5.1271  -31.0560   54.2856 C   0  0  0  1  0  0
   -5.8838  -31.6190   55.4666 C   0  0  0  1  0  0
   -7.1927  -30.8775   55.7567 C   0  0  0  1  0  0
   -5.7999  -33.1098   55.7527 C   0  0  0  1  0  0
   -5.0872  -32.1310   56.6557 C   0  0  0  1  0  0
   -7.2038  -29.6640   55.7714 O   0  0  0  1  0  0
   -8.2950  -31.5915   55.9949 O   0  0  0  1  0  0
   -6.6429  -23.5777   49.7592 H   0  0
   -4.2477  -27.0622   52.3527 H   0  0
   -7.6515  -24.4994   51.8235 H   0  0
   -6.4592  -26.2646   53.1111 H   0  0
   -0.9433  -26.5417   51.4126 H   0  0
   -2.4159  -26.7546   52.3405 H   0  0
   -3.6747  -27.1844   48.3713 H   0  0
   -2.0760  -27.8292   48.7078 H   0  0
   -1.0030  -26.1968   48.0658 H   0  0
   -1.3238  -28.8942   52.2724 H   0  0
   -1.0948  -28.7918   50.5019 H   0  0
   -4.7451  -28.6714   49.9045 H   0  0
   -3.5130  -29.6781   49.1269 H   0  0
   -1.8892  -23.6594   46.7085 H   0  0
    2.4699  -22.3631   48.7607 H   0  0
   -0.6988  -21.6146   45.9260 H   0  0
   -5.4981  -30.3506   50.9546 H   0  0
   -2.1493  -29.5503   53.5739 H   0  0
    2.5635  -23.3506   50.7043 H   0  0
    3.3495  -24.2970   49.4621 H   0  0
    2.9718  -25.0877   51.0558 H   0  0
   -6.7097  -31.4228   52.8517 H   0  0
   -3.3359  -30.6730   55.4422 H   0  0
    2.6613  -20.9628   46.5342 H   0  0
    1.8094  -20.0222   47.7450 H   0  0
    1.1558  -20.0742   46.0551 H   0  0
   -5.1074  -33.6091   55.0750 H   0  0
   -6.7179  -33.4817   56.2077 H   0  0
   -5.6253  -31.9826   57.5919 H   0  0
   -4.0155  -32.1087   56.4583 H   0  0
   -8.0498  -32.2159   56.8027 H   0  0
  1  2  1  0
  2  3  1  0
  2  4  1  0
  2  5  1  0
  5  6  2  0
  5  7  1  0
  6  8  1  0
  6  9  1  0
  7 10  2  0
  8 11  2  0
  9 12  1  0
  9 13  1  0
  9 14  1  0
 10 11  1  0
 12 15  2  0
 12 16  1  0
 13 17  1  0
 14 18  1  0
 16 19  1  0
 17 20  1  0
 18 20  1  0
 19 21  2  0
 19 22  1  0
 20 23  1  0
 21 24  1  0
 21 25  1  0
 22 26  2  0
 23 27  2  0
 23 28  1  0
 24 29  1  0
 25 30  2  0
 26 30  1  0
 27 31  1  0
 28 32  2  0
 30 33  1  0
 31 34  2  0
 32 34  1  0
 34 35  1  0
 35 36  1  0
 35 37  1  0
 35 38  1  0
 36 39  2  0
 36 40  1  0
 37 38  1  0
  7 41  1  0
  8 42  1  0
 10 43  1  0
 11 44  1  0
 13 45  1  0
 13 46  1  0
 14 47  1  0
 14 48  1  0
 16 49  1  0
 17 50  1  0
 17 51  1  0
 18 52  1  0
 18 53  1  0
 22 54  1  0
 25 55  1  0
 26 56  1  0
 27 57  1  0
 28 58  1  0
 29 59  1  0
 29 60  1  0
 29 61  1  0
 31 62  1  0
 32 63  1  0
 33 64  1  0
 33 65  1  0
 33 66  1  0
 37 67  1  0
 37 68  1  0
 38 69  1  0
 38 70  1  0
 40 71  1  0
M  END
> <Name>
10

> <AbsoluteEnergy>
86.1177

> <Clean Energy>
144.703

> <Column 1>
10

> <ConfNumber>
135

> <Filter_Pass>
Failed

> <IC50_nM>
62.87

> <LogP>
6.32

> <MOL_NUMBER>
7

> <QSAR_Score_pIC50>
7.202

> <RelativeEnergy>
15.748

> <SMILES>
COc1cc(C)ccc1NC(=O)C1(c2ccccc2C(F)(F)F)CCN(c2ccc(C3(C(=O)O)CC3)cc2)CC1

> <Toxicity_Alerts>
DILI, Basic N (hERG Warning)

> <Type>
Analog

> <POSE_NUMBER>
39

> <LibDockScore>
81.6706

> <HotSpots>
-6.33,-26.32,51.98,A,57,11
-0.93,-23.32,46.98,A,25,22
1.67,-24.32,50.98,A,50,29

$$$$
10
  SciTegic05082609073D

 71 75  0  0  0  0            999 V2000
   -3.4025  -30.0822   54.1662 F   0  0  0  1  0  0
   -2.3104  -29.3575   53.7831 C   0  0  0  1  0  0
   -1.3410  -29.6152   54.7255 F   0  0  0  1  0  0
   -1.8370  -29.7867   52.5709 F   0  0  0  1  0  0
   -2.6377  -27.8829   53.6786 C   0  0  0  1  0  0
   -3.8386  -27.3389   53.0999 C   0  0  0  1  0  0
   -1.6758  -26.9926   54.2099 C   0  0  0  1  0  0
   -4.0819  -25.9499   53.2982 C   0  0  0  1  0  0
   -4.9157  -28.1250   52.3145 C   0  0  0  1  0  0
   -1.9133  -25.6166   54.2985 C   0  0  0  1  0  0
   -3.1361  -25.0973   53.8750 C   0  0  0  1  0  0
   -5.9142  -28.7175   53.3225 C   0  0  0  1  0  0
   -5.6655  -27.2042   51.2868 C   0  0  0  1  0  0
   -4.4258  -29.2578   51.3475 C   0  0  0  1  0  0
   -5.7194  -28.6196   54.5159 O   0  0  0  1  0  0
   -7.0462  -29.3541   52.8542 N   0  0  0  1  0  0
   -4.7332  -26.5110   50.2704 C   0  0  0  1  0  0
   -3.6319  -28.8474   50.1028 C   0  0  0  1  0  0
   -7.9920  -30.0174   53.6174 C   0  0  0  1  0  0
   -3.6321  -27.3897   49.7625 N   0  0  0  1  0  0
   -7.6588  -30.9056   54.6768 C   0  0  0  1  0  0
   -9.3440  -29.7796   53.2961 C   0  0  0  1  0  0
   -2.5838  -26.8812   48.9930 C   0  0  0  1  0  0
   -6.3766  -31.2004   54.9105 O   0  0  0  1  0  0
   -8.7096  -31.4633   55.4464 C   0  0  0  1  0  0
  -10.3691  -30.3589   54.0534 C   0  0  0  1  0  0
   -1.3731  -27.6084   48.8966 C   0  0  0  1  0  0
   -2.6765  -25.6437   48.3110 C   0  0  0  1  0  0
   -5.9774  -32.2498   55.8028 C   0  0  0  1  0  0
  -10.0608  -31.1914   55.1411 C   0  0  0  1  0  0
   -0.2415  -27.0444   48.3054 C   0  0  0  1  0  0
   -1.5392  -25.0784   47.6970 C   0  0  0  1  0  0
  -11.1623  -31.7799   55.9629 C   0  0  0  1  0  0
   -0.2984  -25.7456   47.7694 C   0  0  0  1  0  0
    0.9878  -25.0830   47.3229 C   0  0  0  1  0  0
    1.8537  -24.6282   48.5077 C   0  0  0  1  0  0
    1.0334  -24.2445   46.0516 C   0  0  0  1  0  0
    1.6668  -25.6193   46.0680 C   0  0  0  1  0  0
    1.2904  -24.3356   49.5453 O   0  0  0  1  0  0
    3.1947  -24.5795   48.3589 O   0  0  0  1  0  0
   -0.7229  -27.3894   54.5601 H   0  0
   -5.0416  -25.5360   52.9886 H   0  0
   -1.1456  -24.9533   54.6969 H   0  0
   -3.3527  -24.0355   53.9927 H   0  0
   -6.2172  -26.4400   51.8343 H   0  0
   -6.3938  -27.8048   50.7419 H   0  0
   -3.8171  -29.9563   51.9217 H   0  0
   -5.2955  -29.8279   51.0207 H   0  0
   -7.2087  -29.3328   51.7968 H   0  0
   -4.2917  -25.6311   50.7384 H   0  0
   -5.3275  -26.1685   49.4233 H   0  0
   -2.5984  -29.1693   50.2311 H   0  0
   -4.0209  -29.3990   49.2469 H   0  0
   -9.5934  -29.1389   52.4503 H   0  0
   -8.4707  -32.1131   56.2883 H   0  0
  -11.4104  -30.1629   53.7976 H   0  0
   -1.3239  -28.6238   49.2899 H   0  0
   -3.6334  -25.1242   48.2601 H   0  0
   -6.4843  -33.1336   55.4155 H   0  0
   -6.4651  -31.9966   56.7441 H   0  0
   -4.9006  -32.3858   55.9036 H   0  0
    0.6881  -27.6118   48.2591 H   0  0
   -1.6190  -24.1287   47.1681 H   0  0
  -10.9480  -31.4591   56.9824 H   0  0
  -10.9903  -32.8556   55.9257 H   0  0
  -12.1643  -31.5021   55.6359 H   0  0
    1.7830  -23.4561   46.1191 H   0  0
    0.0738  -24.2504   45.5347 H   0  0
    1.0435  -26.3548   45.5594 H   0  0
    2.7525  -25.5606   46.1455 H   0  0
    3.3551  -23.9495   47.5344 H   0  0
  1  2  1  0
  2  3  1  0
  2  4  1  0
  2  5  1  0
  5  6  2  0
  5  7  1  0
  6  8  1  0
  6  9  1  0
  7 10  2  0
  8 11  2  0
  9 12  1  0
  9 13  1  0
  9 14  1  0
 10 11  1  0
 12 15  2  0
 12 16  1  0
 13 17  1  0
 14 18  1  0
 16 19  1  0
 17 20  1  0
 18 20  1  0
 19 21  2  0
 19 22  1  0
 20 23  1  0
 21 24  1  0
 21 25  1  0
 22 26  2  0
 23 27  2  0
 23 28  1  0
 24 29  1  0
 25 30  2  0
 26 30  1  0
 27 31  1  0
 28 32  2  0
 30 33  1  0
 31 34  2  0
 32 34  1  0
 34 35  1  0
 35 36  1  0
 35 37  1  0
 35 38  1  0
 36 39  2  0
 36 40  1  0
 37 38  1  0
  7 41  1  0
  8 42  1  0
 10 43  1  0
 11 44  1  0
 13 45  1  0
 13 46  1  0
 14 47  1  0
 14 48  1  0
 16 49  1  0
 17 50  1  0
 17 51  1  0
 18 52  1  0
 18 53  1  0
 22 54  1  0
 25 55  1  0
 26 56  1  0
 27 57  1  0
 28 58  1  0
 29 59  1  0
 29 60  1  0
 29 61  1  0
 31 62  1  0
 32 63  1  0
 33 64  1  0
 33 65  1  0
 33 66  1  0
 37 67  1  0
 37 68  1  0
 38 69  1  0
 38 70  1  0
 40 71  1  0
M  END
> <Name>
10

> <AbsoluteEnergy>
86.1753

> <Clean Energy>
144.703

> <Column 1>
10

> <ConfNumber>
137

> <Filter_Pass>
Failed

> <IC50_nM>
62.87

> <LogP>
6.32

> <MOL_NUMBER>
7

> <QSAR_Score_pIC50>
7.202

> <RelativeEnergy>
15.8056

> <SMILES>
COc1cc(C)ccc1NC(=O)C1(c2ccccc2C(F)(F)F)CCN(c2ccc(C3(C(=O)O)CC3)cc2)CC1

> <Toxicity_Alerts>
DILI, Basic N (hERG Warning)

> <Type>
Analog

> <POSE_NUMBER>
40

> <LibDockScore>
80.705

> <HotSpots>
-6.33,-26.32,51.98,A,57,13
-9.53,-30.12,52.78,A,62,22
0.27,-22.52,46.78,A,23,37

$$$$
10
  SciTegic05082609073D

 71 75  0  0  0  0            999 V2000
   -6.8009  -31.4331   51.0282 F   0  0  0  1  0  0
   -6.3201  -30.3365   51.7127 C   0  0  0  1  0  0
   -5.4012  -30.7901   52.6257 F   0  0  0  1  0  0
   -5.6859  -29.5608   50.7854 F   0  0  0  1  0  0
   -7.4299  -29.5921   52.4410 C   0  0  0  1  0  0
   -7.4784  -28.1663   52.6694 C   0  0  0  1  0  0
   -8.4911  -30.3961   52.9336 C   0  0  0  1  0  0
   -8.6484  -27.6443   53.2877 C   0  0  0  1  0  0
   -6.3631  -27.1638   52.2976 C   0  0  0  1  0  0
   -9.6096  -29.8429   53.5629 C   0  0  0  1  0  0
   -9.6955  -28.4628   53.7257 C   0  0  0  1  0  0
   -4.9584  -27.7040   52.5810 C   0  0  0  1  0  0
   -6.4889  -26.7254   50.7998 C   0  0  0  1  0  0
   -6.4603  -25.8028   53.0791 C   0  0  0  1  0  0
   -4.1140  -27.6104   51.7169 O   0  0  0  1  0  0
   -4.6349  -28.2809   53.7977 N   0  0  0  1  0  0
   -5.6714  -25.4633   50.3860 C   0  0  0  1  0  0
   -5.2988  -24.8152   52.8092 C   0  0  0  1  0  0
   -3.3549  -28.2292   54.3332 C   0  0  0  1  0  0
   -4.7293  -24.9846   51.4435 N   0  0  0  1  0  0
   -2.9135  -29.2176   55.2460 C   0  0  0  1  0  0
   -2.4801  -27.1844   53.9539 C   0  0  0  1  0  0
   -3.3721  -24.7692   51.2205 C   0  0  0  1  0  0
   -3.7515  -30.1945   55.5860 O   0  0  0  1  0  0
   -1.5898  -29.1426   55.7441 C   0  0  0  1  0  0
   -1.1709  -27.1321   54.4406 C   0  0  0  1  0  0
   -2.8269  -24.8852   49.9230 C   0  0  0  1  0  0
   -2.5034  -24.4670   52.2945 C   0  0  0  1  0  0
   -3.3015  -31.4436   56.1139 C   0  0  0  1  0  0
   -0.7181  -28.1115   55.3425 C   0  0  0  1  0  0
   -1.4394  -24.8141   49.7218 C   0  0  0  1  0  0
   -1.1175  -24.3620   52.0855 C   0  0  0  1  0  0
    0.6762  -28.0659   55.8748 C   0  0  0  1  0  0
   -0.5762  -24.5627   50.8031 C   0  0  0  1  0  0
    0.9210  -24.5284   50.5945 C   0  0  0  1  0  0
    1.3737  -24.7997   49.1591 C   0  0  0  1  0  0
    1.7433  -23.5629   51.4388 C   0  0  0  1  0  0
    1.8089  -25.0449   51.7205 C   0  0  0  1  0  0
    1.5183  -23.8750   48.3869 O   0  0  0  1  0  0
    1.6176  -26.0544   48.7709 O   0  0  0  1  0  0
   -8.4317  -31.4783   52.8174 H   0  0
   -8.7324  -26.5663   53.4255 H   0  0
  -10.4102  -30.4883   53.9243 H   0  0
  -10.5757  -28.0212   54.1929 H   0  0
   -7.5405  -26.5429   50.5787 H   0  0
   -6.1807  -27.5586   50.1682 H   0  0
   -6.4967  -26.0137   54.1479 H   0  0
   -7.3997  -25.3156   52.8178 H   0  0
   -5.4016  -28.7864   54.3468 H   0  0
   -5.1013  -25.6913   49.4854 H   0  0
   -6.3635  -24.6573   50.1420 H   0  0
   -4.5117  -24.9777   53.5455 H   0  0
   -5.6650  -23.7943   52.9180 H   0  0
   -2.8317  -26.4095   53.2728 H   0  0
   -1.2396  -29.8955   56.4502 H   0  0
   -0.5017  -26.3331   54.1215 H   0  0
   -3.4895  -25.0313   49.0699 H   0  0
   -2.9122  -24.3141   53.2933 H   0  0
   -2.7046  -31.1643   56.9821 H   0  0
   -2.6053  -31.8136   55.3612 H   0  0
   -4.0912  -32.1565   56.3511 H   0  0
   -1.0289  -24.9545   48.7219 H   0  0
   -0.4593  -24.1240   52.9211 H   0  0
    1.1100  -29.0313   55.6141 H   0  0
    0.5644  -28.0463   56.9589 H   0  0
    1.2659  -27.2289   55.5010 H   0  0
    1.1231  -23.0417   52.1681 H   0  0
    2.6261  -23.2157   50.9020 H   0  0
    2.7270  -25.4877   51.3343 H   0  0
    1.2228  -25.3140   52.5992 H   0  0
    0.7283  -26.5754   48.9715 H   0  0
  1  2  1  0
  2  3  1  0
  2  4  1  0
  2  5  1  0
  5  6  2  0
  5  7  1  0
  6  8  1  0
  6  9  1  0
  7 10  2  0
  8 11  2  0
  9 12  1  0
  9 13  1  0
  9 14  1  0
 10 11  1  0
 12 15  2  0
 12 16  1  0
 13 17  1  0
 14 18  1  0
 16 19  1  0
 17 20  1  0
 18 20  1  0
 19 21  2  0
 19 22  1  0
 20 23  1  0
 21 24  1  0
 21 25  1  0
 22 26  2  0
 23 27  2  0
 23 28  1  0
 24 29  1  0
 25 30  2  0
 26 30  1  0
 27 31  1  0
 28 32  2  0
 30 33  1  0
 31 34  2  0
 32 34  1  0
 34 35  1  0
 35 36  1  0
 35 37  1  0
 35 38  1  0
 36 39  2  0
 36 40  1  0
 37 38  1  0
  7 41  1  0
  8 42  1  0
 10 43  1  0
 11 44  1  0
 13 45  1  0
 13 46  1  0
 14 47  1  0
 14 48  1  0
 16 49  1  0
 17 50  1  0
 17 51  1  0
 18 52  1  0
 18 53  1  0
 22 54  1  0
 25 55  1  0
 26 56  1  0
 27 57  1  0
 28 58  1  0
 29 59  1  0
 29 60  1  0
 29 61  1  0
 31 62  1  0
 32 63  1  0
 33 64  1  0
 33 65  1  0
 33 66  1  0
 37 67  1  0
 37 68  1  0
 38 69  1  0
 38 70  1  0
 40 71  1  0
M  END
> <Name>
10

> <AbsoluteEnergy>
75.9543

> <Clean Energy>
144.703

> <Column 1>
10

> <ConfNumber>
39

> <Filter_Pass>
Failed

> <IC50_nM>
62.87

> <LogP>
6.32

> <MOL_NUMBER>
7

> <QSAR_Score_pIC50>
7.202

> <RelativeEnergy>
5.58461

> <SMILES>
COc1cc(C)ccc1NC(=O)C1(c2ccccc2C(F)(F)F)CCN(c2ccc(C3(C(=O)O)CC3)cc2)CC1

> <Toxicity_Alerts>
DILI, Basic N (hERG Warning)

> <Type>
Analog

> <POSE_NUMBER>
41

> <LibDockScore>
75.3631

> <HotSpots>
-9.53,-30.12,52.78,A,62,10
-1.73,-29.72,55.59,A,76,25
-4.13,-31.12,56.59,A,79,29

$$$$
11
  SciTegic05082609073D

 68 72  0  0  0  0            999 V2000
   -2.2957  -26.6254   47.2132 Cl  0  0  0  1  0  0
   -3.3756  -25.3023   47.4146 C   0  0  0  1  0  0
   -3.7190  -24.6996   48.6707 C   0  0  0  1  0  0
   -3.9216  -24.8124   46.2077 C   0  0  0  1  0  0
   -4.6086  -23.5913   48.6188 C   0  0  0  1  0  0
   -3.1654  -25.1640   50.0392 C   0  0  0  1  0  0
   -4.8122  -23.7345   46.2073 C   0  0  0  1  0  0
   -5.1552  -23.1240   47.4148 C   0  0  0  1  0  0
   -1.7533  -24.5661   50.2292 C   0  0  0  1  0  0
   -4.0085  -24.6359   51.2618 C   0  0  0  1  0  0
   -3.2323  -26.7126   50.2582 C   0  0  0  1  0  0
   -1.6283  -23.6636   51.0290 O   0  0  0  1  0  0
   -0.6357  -25.0192   49.5284 N   0  0  0  1  0  0
   -5.4568  -25.1769   51.4095 C   0  0  0  1  0  0
   -4.6640  -27.2963   50.2928 C   0  0  0  1  0  0
    0.6743  -24.5612   49.6853 C   0  0  0  1  0  0
   -5.5185  -26.6616   51.3445 N   0  0  0  1  0  0
    1.5847  -24.5867   48.5895 C   0  0  0  1  0  0
    1.1188  -24.0718   50.9360 C   0  0  0  1  0  0
   -6.3400  -27.3937   52.2126 C   0  0  0  1  0  0
    1.1704  -25.0533   47.4088 O   0  0  0  1  0  0
    2.9058  -24.1046   48.7776 C   0  0  0  1  0  0
    2.4301  -23.6046   51.1028 C   0  0  0  1  0  0
   -6.0094  -28.7179   52.5730 C   0  0  0  1  0  0
   -7.5219  -26.8293   52.7599 C   0  0  0  1  0  0
    2.0306  -25.1315   46.2647 C   0  0  0  1  0  0
    3.3287  -23.6138   50.0254 C   0  0  0  1  0  0
   -6.8098  -29.4439   53.4743 C   0  0  0  1  0  0
   -8.3230  -27.5584   53.6602 C   0  0  0  1  0  0
    4.7230  -23.1018   50.2123 C   0  0  0  1  0  0
   -7.9573  -28.8593   54.0399 C   0  0  0  1  0  0
   -8.7835  -29.6151   55.0615 C   0  0  0  1  0  0
   -8.8668  -28.8935   56.4117 C   0  0  0  1  0  0
   -8.7505  -31.1379   55.0712 C   0  0  0  1  0  0
   -9.9870  -30.4209   54.5801 C   0  0  0  1  0  0
   -9.8492  -29.0370   57.1041 O   0  0  0  1  0  0
   -7.8478  -28.1193   56.7996 O   0  0  0  1  0  0
   -3.6448  -25.2812   45.2634 H   0  0
   -4.8751  -23.0872   49.5477 H   0  0
   -5.2359  -23.3733   45.2702 H   0  0
   -5.8487  -22.2831   47.4219 H   0  0
   -4.0549  -23.5484   51.2038 H   0  0
   -3.4639  -24.8637   52.1781 H   0  0
   -2.6744  -27.2036   49.4608 H   0  0
   -2.7334  -26.9566   51.1961 H   0  0
   -0.7970  -25.7892   48.8032 H   0  0
   -5.8648  -24.8467   52.3648 H   0  0
   -6.0762  -24.7615   50.6145 H   0  0
   -4.6078  -28.3683   50.4818 H   0  0
   -5.1321  -27.1488   49.3195 H   0  0
    0.4319  -24.0577   51.7822 H   0  0
    3.6044  -24.1149   47.9409 H   0  0
    2.7532  -23.2322   52.0749 H   0  0
   -5.1213  -29.1847   52.1470 H   0  0
   -7.8137  -25.8172   52.4794 H   0  0
    2.8755  -25.7274   46.6099 H   0  0
    2.3969  -24.1125   46.1396 H   0  0
    1.5663  -25.5316   45.3634 H   0  0
   -6.5386  -30.4667   53.7360 H   0  0
   -9.2310  -27.1104   54.0639 H   0  0
    4.8350  -22.3226   49.4584 H   0  0
    5.3645  -23.9300   49.9112 H   0  0
    4.9391  -22.7468   51.2199 H   0  0
   -8.8885  -31.5345   56.0771 H   0  0
   -8.1577  -31.5297   54.2447 H   0  0
  -10.0519  -30.4301   53.4921 H   0  0
  -10.7822  -30.4334   55.3255 H   0  0
   -7.7271  -27.4200   56.0257 H   0  0
  1  2  1  0
  2  3  2  0
  2  4  1  0
  3  5  1  0
  3  6  1  0
  4  7  2  0
  5  8  2  0
  6  9  1  0
  6 10  1  0
  6 11  1  0
  7  8  1  0
  9 12  2  0
  9 13  1  0
 10 14  1  0
 11 15  1  0
 13 16  1  0
 14 17  1  0
 15 17  1  0
 16 18  2  0
 16 19  1  0
 17 20  1  0
 18 21  1  0
 18 22  1  0
 19 23  2  0
 20 24  2  0
 20 25  1  0
 21 26  1  0
 22 27  2  0
 23 27  1  0
 24 28  1  0
 25 29  2  0
 27 30  1  0
 28 31  2  0
 29 31  1  0
 31 32  1  0
 32 33  1  0
 32 34  1  0
 32 35  1  0
 33 36  2  0
 33 37  1  0
 34 35  1  0
  4 38  1  0
  5 39  1  0
  7 40  1  0
  8 41  1  0
 10 42  1  0
 10 43  1  0
 11 44  1  0
 11 45  1  0
 13 46  1  0
 14 47  1  0
 14 48  1  0
 15 49  1  0
 15 50  1  0
 19 51  1  0
 22 52  1  0
 23 53  1  0
 24 54  1  0
 25 55  1  0
 26 56  1  0
 26 57  1  0
 26 58  1  0
 28 59  1  0
 29 60  1  0
 30 61  1  0
 30 62  1  0
 30 63  1  0
 34 64  1  0
 34 65  1  0
 35 66  1  0
 35 67  1  0
 37 68  1  0
M  END
> <Name>
11

> <AbsoluteEnergy>
71.9084

> <Clean Energy>
121.047

> <Column 1>
11

> <ConfNumber>
39

> <Filter_Pass>
Failed

> <IC50_nM>
65.29

> <LogP>
5.95

> <MOL_NUMBER>
8

> <QSAR_Score_pIC50>
7.185

> <RelativeEnergy>
8.63432

> <SMILES>
COc1cc(C)ccc1NC(=O)C1(c2ccccc2Cl)CCN(c2ccc(C3(C(=O)O)CC3)cc2)CC1

> <Toxicity_Alerts>
DILI, Basic N (hERG Warning)

> <Type>
Analog

> <POSE_NUMBER>
1

> <LibDockScore>
129.1313

> <HotSpots>
-4.53,-24.52,46.19,A,17,7
2.67,-22.92,49.98,A,39,22
-7.73,-27.92,56.98,P,70,37

$$$$
11
  SciTegic05082609073D

 68 72  0  0  0  0            999 V2000
   -2.3287  -26.1659   47.5890 Cl  0  0  0  1  0  0
   -3.5755  -25.0528   47.9976 C   0  0  0  1  0  0
   -3.8686  -24.5690   49.3170 C   0  0  0  1  0  0
   -4.3248  -24.6010   46.8935 C   0  0  0  1  0  0
   -4.8484  -23.5449   49.4189 C   0  0  0  1  0  0
   -3.2026  -25.0416   50.6258 C   0  0  0  1  0  0
   -5.3158  -23.6258   47.0445 C   0  0  0  1  0  0
   -5.5657  -23.0845   48.3069 C   0  0  0  1  0  0
   -1.8113  -24.3968   50.7276 C   0  0  0  1  0  0
   -3.0977  -26.5797   50.8459 C   0  0  0  1  0  0
   -4.0495  -24.6402   51.8827 C   0  0  0  1  0  0
   -1.5918  -23.6086   51.6198 O   0  0  0  1  0  0
   -0.8300  -24.7107   49.7946 N   0  0  0  1  0  0
   -4.4536  -27.3167   50.8090 C   0  0  0  1  0  0
   -5.4619  -25.2661   51.9403 C   0  0  0  1  0  0
    0.5281  -24.3813   49.8153 C   0  0  0  1  0  0
   -5.4659  -26.7539   51.7631 N   0  0  0  1  0  0
    1.2868  -24.4891   48.6144 C   0  0  0  1  0  0
    1.1768  -23.9478   50.9956 C   0  0  0  1  0  0
   -6.4093  -27.5642   52.4130 C   0  0  0  1  0  0
    0.6815  -24.9151   47.5044 O   0  0  0  1  0  0
    2.6586  -24.1390   48.6290 C   0  0  0  1  0  0
    2.5359  -23.6015   50.9884 C   0  0  0  1  0  0
   -7.4667  -26.9897   53.1648 C   0  0  0  1  0  0
   -6.3504  -28.9769   52.3374 C   0  0  0  1  0  0
    1.3807  -25.1196   46.2719 C   0  0  0  1  0  0
    3.2825  -23.6936   49.8046 C   0  0  0  1  0  0
   -8.4434  -27.7939   53.7777 C   0  0  0  1  0  0
   -7.3281  -29.7806   52.9487 C   0  0  0  1  0  0
    4.7320  -23.3262   49.7849 C   0  0  0  1  0  0
   -8.3887  -29.1931   53.6600 C   0  0  0  1  0  0
   -9.4664  -30.0584   54.2839 C   0  0  0  1  0  0
  -10.6350  -30.3557   53.3406 C   0  0  0  1  0  0
   -9.7573  -29.8965   55.7690 C   0  0  0  1  0  0
   -9.0549  -31.1384   55.2746 C   0  0  0  1  0  0
  -11.6671  -30.8011   53.7939 O   0  0  0  1  0  0
  -10.4949  -30.1209   52.0335 O   0  0  0  1  0  0
   -4.1290  -25.0182   45.9057 H   0  0
   -5.0487  -23.1027   50.3948 H   0  0
   -5.8901  -23.2901   46.1810 H   0  0
   -6.3178  -22.3048   48.4272 H   0  0
   -2.4489  -27.0012   50.0781 H   0  0
   -2.6239  -26.7663   51.8096 H   0  0
   -4.1485  -23.5550   51.9069 H   0  0
   -3.5030  -24.9306   52.7800 H   0  0
   -1.1574  -25.2793   48.9494 H   0  0
   -4.2923  -28.3680   51.0475 H   0  0
   -4.8567  -27.2649   49.7976 H   0  0
   -5.9160  -25.0255   52.9016 H   0  0
   -6.0799  -24.8182   51.1621 H   0  0
    0.6114  -23.8819   51.9252 H   0  0
    3.2406  -24.2168   47.7107 H   0  0
    3.0138  -23.2594   51.9064 H   0  0
   -7.5227  -25.9061   53.2689 H   0  0
   -5.5317  -29.4499   51.7951 H   0  0
    2.1791  -25.8137   46.5343 H   0  0
    1.8549  -24.1580   46.0757 H   0  0
    0.7658  -25.4697   45.4427 H   0  0
   -9.2480  -27.3293   54.3477 H   0  0
   -7.2635  -30.8659   52.8707 H   0  0
    4.8197  -22.5604   49.0142 H   0  0
    5.2444  -24.2145   49.4155 H   0  0
    5.1169  -22.9935   50.7489 H   0  0
  -10.8059  -30.0903   55.9947 H   0  0
   -9.0619  -29.2009   56.2387 H   0  0
   -7.9852  -31.1048   55.4814 H   0  0
   -9.7294  -31.9938   55.2358 H   0  0
   -9.6517  -30.6772   51.7470 H   0  0
  1  2  1  0
  2  3  2  0
  2  4  1  0
  3  5  1  0
  3  6  1  0
  4  7  2  0
  5  8  2  0
  6  9  1  0
  6 10  1  0
  6 11  1  0
  7  8  1  0
  9 12  2  0
  9 13  1  0
 10 14  1  0
 11 15  1  0
 13 16  1  0
 14 17  1  0
 15 17  1  0
 16 18  2  0
 16 19  1  0
 17 20  1  0
 18 21  1  0
 18 22  1  0
 19 23  2  0
 20 24  2  0
 20 25  1  0
 21 26  1  0
 22 27  2  0
 23 27  1  0
 24 28  1  0
 25 29  2  0
 27 30  1  0
 28 31  2  0
 29 31  1  0
 31 32  1  0
 32 33  1  0
 32 34  1  0
 32 35  1  0
 33 36  2  0
 33 37  1  0
 34 35  1  0
  4 38  1  0
  5 39  1  0
  7 40  1  0
  8 41  1  0
 10 42  1  0
 10 43  1  0
 11 44  1  0
 11 45  1  0
 13 46  1  0
 14 47  1  0
 14 48  1  0
 15 49  1  0
 15 50  1  0
 19 51  1  0
 22 52  1  0
 23 53  1  0
 24 54  1  0
 25 55  1  0
 26 56  1  0
 26 57  1  0
 26 58  1  0
 28 59  1  0
 29 60  1  0
 30 61  1  0
 30 62  1  0
 30 63  1  0
 34 64  1  0
 34 65  1  0
 35 66  1  0
 35 67  1  0
 37 68  1  0
M  END
> <Name>
11

> <AbsoluteEnergy>
70.4311

> <Clean Energy>
121.047

> <Column 1>
11

> <ConfNumber>
31

> <Filter_Pass>
Failed

> <IC50_nM>
65.29

> <LogP>
5.95

> <MOL_NUMBER>
8

> <QSAR_Score_pIC50>
7.185

> <RelativeEnergy>
7.15703

> <SMILES>
COc1cc(C)ccc1NC(=O)C1(c2ccccc2Cl)CCN(c2ccc(C3(C(=O)O)CC3)cc2)CC1

> <Toxicity_Alerts>
DILI, Basic N (hERG Warning)

> <Type>
Analog

> <POSE_NUMBER>
2

> <LibDockScore>
128.8597

> <HotSpots>
-4.93,-23.52,47.59,A,26,7
2.67,-23.92,48.98,A,32,22
4.67,-22.92,49.98,A,40,30

$$$$
11
  SciTegic05082609073D

 68 72  0  0  0  0            999 V2000
   -1.7697  -21.5610   46.8266 Cl  0  0  0  1  0  0
   -0.7752  -22.8702   47.3303 C   0  0  0  1  0  0
   -1.0963  -23.8196   48.3555 C   0  0  0  1  0  0
    0.4488  -22.9724   46.6345 C   0  0  0  1  0  0
   -0.1612  -24.8594   48.5936 C   0  0  0  1  0  0
   -2.3504  -23.8564   49.2413 C   0  0  0  1  0  0
    1.3530  -24.0040   46.9131 C   0  0  0  1  0  0
    1.0452  -24.9532   47.8901 C   0  0  0  1  0  0
   -2.3252  -25.1456   50.0889 C   0  0  0  1  0  0
   -2.6017  -22.6600   50.2203 C   0  0  0  1  0  0
   -3.6146  -23.8561   48.3062 C   0  0  0  1  0  0
   -3.0185  -26.0772   49.7470 O   0  0  0  1  0  0
   -1.5352  -25.2181   51.2285 N   0  0  0  1  0  0
   -3.8525  -22.8385   51.1240 C   0  0  0  1  0  0
   -4.9617  -23.5083   49.0005 C   0  0  0  1  0  0
   -1.5515  -26.1798   52.2471 C   0  0  0  1  0  0
   -4.8663  -23.7239   50.4704 N   0  0  0  1  0  0
   -0.5785  -26.1155   53.2834 C   0  0  0  1  0  0
   -2.5165  -27.2186   52.3057 C   0  0  0  1  0  0
   -5.5656  -24.7359   51.1321 C   0  0  0  1  0  0
    0.3492  -25.1685   53.3203 O   0  0  0  1  0  0
   -0.5751  -27.0735   54.3146 C   0  0  0  1  0  0
   -2.5169  -28.1542   53.3491 C   0  0  0  1  0  0
   -4.9686  -25.4387   52.2064 C   0  0  0  1  0  0
   -6.8685  -25.1179   50.7294 C   0  0  0  1  0  0
   -0.0357  -23.7944   53.2272 C   0  0  0  1  0  0
   -1.5441  -28.0895   54.3578 C   0  0  0  1  0  0
   -5.6012  -26.5464   52.7848 C   0  0  0  1  0  0
   -7.5024  -26.2326   51.3070 C   0  0  0  1  0  0
   -1.5357  -29.0863   55.4716 C   0  0  0  1  0  0
   -6.8473  -26.9784   52.3031 C   0  0  0  1  0  0
   -7.4559  -28.2485   52.8444 C   0  0  0  1  0  0
   -7.8258  -28.1839   54.3206 C   0  0  0  1  0  0
   -6.9496  -29.5776   52.2958 C   0  0  0  1  0  0
   -8.3208  -29.0826   51.9113 C   0  0  0  1  0  0
   -7.1931  -28.8486   55.1076 O   0  0  0  1  0  0
   -8.8356  -27.4096   54.7231 O   0  0  0  1  0  0
    0.6936  -22.2366   45.8685 H   0  0
   -0.3898  -25.6105   49.3497 H   0  0
    2.2952  -24.0663   46.3687 H   0  0
    1.7417  -25.7639   48.1040 H   0  0
   -1.7247  -22.5344   50.8554 H   0  0
   -2.7169  -21.7456   49.6383 H   0  0
   -3.4483  -23.1450   47.4970 H   0  0
   -3.7069  -24.8391   47.8445 H   0  0
   -0.8170  -24.4335   51.3443 H   0  0
   -3.5501  -23.2799   52.0737 H   0  0
   -4.2999  -21.8635   51.3174 H   0  0
   -5.7514  -24.1408   48.5951 H   0  0
   -5.2092  -22.4648   48.8055 H   0  0
   -3.2724  -27.2902   51.5237 H   0  0
    0.1896  -27.0264   55.0899 H   0  0
   -3.2764  -28.9356   53.3770 H   0  0
   -4.0016  -25.1126   52.5893 H   0  0
   -7.3861  -24.5412   49.9628 H   0  0
   -0.7422  -23.6390   54.0426 H   0  0
   -0.5941  -23.7159   52.2944 H   0  0
    0.8022  -23.0985   53.2675 H   0  0
   -5.1250  -27.0744   53.6109 H   0  0
   -8.5027  -26.5188   50.9822 H   0  0
   -1.5926  -28.4907   56.3827 H   0  0
   -0.5418  -29.5328   55.4421 H   0  0
   -2.3301  -29.8299   55.4080 H   0  0
   -7.0017  -30.3655   53.0472 H   0  0
   -6.2275  -29.4284   51.4931 H   0  0
   -8.3321  -28.6713   50.9019 H   0  0
   -9.1058  -29.6067   52.4564 H   0  0
   -9.6599  -27.7355   54.1603 H   0  0
  1  2  1  0
  2  3  2  0
  2  4  1  0
  3  5  1  0
  3  6  1  0
  4  7  2  0
  5  8  2  0
  6  9  1  0
  6 10  1  0
  6 11  1  0
  7  8  1  0
  9 12  2  0
  9 13  1  0
 10 14  1  0
 11 15  1  0
 13 16  1  0
 14 17  1  0
 15 17  1  0
 16 18  2  0
 16 19  1  0
 17 20  1  0
 18 21  1  0
 18 22  1  0
 19 23  2  0
 20 24  2  0
 20 25  1  0
 21 26  1  0
 22 27  2  0
 23 27  1  0
 24 28  1  0
 25 29  2  0
 27 30  1  0
 28 31  2  0
 29 31  1  0
 31 32  1  0
 32 33  1  0
 32 34  1  0
 32 35  1  0
 33 36  2  0
 33 37  1  0
 34 35  1  0
  4 38  1  0
  5 39  1  0
  7 40  1  0
  8 41  1  0
 10 42  1  0
 10 43  1  0
 11 44  1  0
 11 45  1  0
 13 46  1  0
 14 47  1  0
 14 48  1  0
 15 49  1  0
 15 50  1  0
 19 51  1  0
 22 52  1  0
 23 53  1  0
 24 54  1  0
 25 55  1  0
 26 56  1  0
 26 57  1  0
 26 58  1  0
 28 59  1  0
 29 60  1  0
 30 61  1  0
 30 62  1  0
 30 63  1  0
 34 64  1  0
 34 65  1  0
 35 66  1  0
 35 67  1  0
 37 68  1  0
M  END
> <Name>
11

> <AbsoluteEnergy>
80.0993

> <Clean Energy>
121.047

> <Column 1>
11

> <ConfNumber>
103

> <Filter_Pass>
Failed

> <IC50_nM>
65.29

> <LogP>
5.95

> <MOL_NUMBER>
8

> <QSAR_Score_pIC50>
7.185

> <RelativeEnergy>
16.8252

> <SMILES>
COc1cc(C)ccc1NC(=O)C1(c2ccccc2Cl)CCN(c2ccc(C3(C(=O)O)CC3)cc2)CC1

> <Toxicity_Alerts>
DILI, Basic N (hERG Warning)

> <Type>
Analog

> <POSE_NUMBER>
3

> <LibDockScore>
125.6203

> <HotSpots>
0.27,-22.52,46.78,A,23,4
0.27,-24.92,46.38,A,19,8
-6.53,-30.72,51.78,A,56,35

$$$$
11
  SciTegic05082609073D

 68 72  0  0  0  0            999 V2000
   -5.7806  -26.6179   51.4366 Cl  0  0  0  1  0  0
   -5.8678  -25.0003   50.8418 C   0  0  0  1  0  0
   -4.7447  -24.2038   50.4310 C   0  0  0  1  0  0
   -7.1687  -24.4850   50.7855 C   0  0  0  1  0  0
   -5.0161  -22.8836   49.9759 C   0  0  0  1  0  0
   -3.3001  -24.7351   50.4970 C   0  0  0  1  0  0
   -7.3985  -23.1885   50.3124 C   0  0  0  1  0  0
   -6.3246  -22.3893   49.9024 C   0  0  0  1  0  0
   -2.2479  -23.9252   49.7125 C   0  0  0  1  0  0
   -2.8499  -24.6757   52.0139 C   0  0  0  1  0  0
   -3.1917  -26.1872   49.8664 C   0  0  0  1  0  0
   -1.1475  -23.7727   50.1833 O   0  0  0  1  0  0
   -2.5411  -23.3886   48.4682 N   0  0  0  1  0  0
   -1.7015  -25.6275   52.4006 C   0  0  0  1  0  0
   -1.9908  -26.9947   50.3842 C   0  0  0  1  0  0
   -1.6325  -22.8386   47.5770 C   0  0  0  1  0  0
   -2.0516  -26.9564   51.8595 N   0  0  0  1  0  0
   -2.1020  -22.0419   46.4990 C   0  0  0  1  0  0
   -0.2475  -23.0727   47.7199 C   0  0  0  1  0  0
   -2.5537  -27.9971   52.6321 C   0  0  0  1  0  0
   -3.4136  -21.8423   46.3764 O   0  0  0  1  0  0
   -1.1631  -21.4852   45.6034 C   0  0  0  1  0  0
    0.6682  -22.5132   46.8219 C   0  0  0  1  0  0
   -3.3480  -28.9892   52.0141 C   0  0  0  1  0  0
   -2.3337  -28.0747   54.0261 C   0  0  0  1  0  0
   -3.9842  -21.0981   45.2964 C   0  0  0  1  0  0
    0.2157  -21.7126   45.7599 C   0  0  0  1  0  0
   -3.9611  -29.9946   52.7704 C   0  0  0  1  0  0
   -2.9585  -29.0788   54.7898 C   0  0  0  1  0  0
    1.2057  -21.1152   44.8146 C   0  0  0  1  0  0
   -3.7971  -30.0251   54.1656 C   0  0  0  1  0  0
   -4.5441  -31.0522   54.9745 C   0  0  0  1  0  0
   -5.9571  -30.5796   55.2925 C   0  0  0  1  0  0
   -4.3170  -32.5317   54.6974 C   0  0  0  1  0  0
   -3.8091  -31.9214   55.9856 C   0  0  0  1  0  0
   -6.9085  -31.1839   54.8415 O   0  0  0  1  0  0
   -6.1348  -29.5007   56.0570 O   0  0  0  1  0  0
   -8.0083  -25.0984   51.1126 H   0  0
   -4.1869  -22.2421   49.6776 H   0  0
   -8.4157  -22.7999   50.2629 H   0  0
   -6.5067  -21.3827   49.5261 H   0  0
   -2.5472  -23.6550   52.2479 H   0  0
   -3.7114  -24.8994   52.6431 H   0  0
   -3.1142  -26.0982   48.7828 H   0  0
   -4.1065  -26.7374   50.0867 H   0  0
   -3.5676  -23.4000   48.1666 H   0  0
   -1.6145  -25.6813   53.4858 H   0  0
   -0.7687  -25.2809   51.9558 H   0  0
   -2.0626  -28.0258   50.0381 H   0  0
   -1.0623  -26.5384   50.0409 H   0  0
    0.1123  -23.6960   48.5385 H   0  0
   -1.5133  -20.8682   44.7759 H   0  0
    1.7350  -22.6990   46.9467 H   0  0
   -3.4851  -28.9711   50.9329 H   0  0
   -1.6769  -27.3534   54.5123 H   0  0
   -3.6130  -21.6023   44.4042 H   0  0
   -3.4774  -20.1342   45.3441 H   0  0
   -5.0705  -21.0108   45.3167 H   0  0
   -4.5664  -30.7548   52.2766 H   0  0
   -2.7936  -29.1249   55.8663 H   0  0
    1.0077  -20.0440   44.8510 H   0  0
    0.8895  -21.4623   43.8309 H   0  0
    2.2446  -21.3603   45.0351 H   0  0
   -3.5105  -32.6854   53.9805 H   0  0
   -5.2252  -33.1124   54.8587 H   0  0
   -4.4473  -32.1787   56.8309 H   0  0
   -2.7332  -31.7502   55.9522 H   0  0
   -5.6016  -28.7372   55.5720 H   0  0
  1  2  1  0
  2  3  2  0
  2  4  1  0
  3  5  1  0
  3  6  1  0
  4  7  2  0
  5  8  2  0
  6  9  1  0
  6 10  1  0
  6 11  1  0
  7  8  1  0
  9 12  2  0
  9 13  1  0
 10 14  1  0
 11 15  1  0
 13 16  1  0
 14 17  1  0
 15 17  1  0
 16 18  2  0
 16 19  1  0
 17 20  1  0
 18 21  1  0
 18 22  1  0
 19 23  2  0
 20 24  2  0
 20 25  1  0
 21 26  1  0
 22 27  2  0
 23 27  1  0
 24 28  1  0
 25 29  2  0
 27 30  1  0
 28 31  2  0
 29 31  1  0
 31 32  1  0
 32 33  1  0
 32 34  1  0
 32 35  1  0
 33 36  2  0
 33 37  1  0
 34 35  1  0
  4 38  1  0
  5 39  1  0
  7 40  1  0
  8 41  1  0
 10 42  1  0
 10 43  1  0
 11 44  1  0
 11 45  1  0
 13 46  1  0
 14 47  1  0
 14 48  1  0
 15 49  1  0
 15 50  1  0
 19 51  1  0
 22 52  1  0
 23 53  1  0
 24 54  1  0
 25 55  1  0
 26 56  1  0
 26 57  1  0
 26 58  1  0
 28 59  1  0
 29 60  1  0
 30 61  1  0
 30 62  1  0
 30 63  1  0
 34 64  1  0
 34 65  1  0
 35 66  1  0
 35 67  1  0
 37 68  1  0
M  END
> <Name>
11

> <AbsoluteEnergy>
73.4893

> <Clean Energy>
121.047

> <Column 1>
11

> <ConfNumber>
57

> <Filter_Pass>
Failed

> <IC50_nM>
65.29

> <LogP>
5.95

> <MOL_NUMBER>
8

> <QSAR_Score_pIC50>
7.185

> <RelativeEnergy>
10.2153

> <SMILES>
COc1cc(C)ccc1NC(=O)C1(c2ccccc2Cl)CCN(c2ccc(C3(C(=O)O)CC3)cc2)CC1

> <Toxicity_Alerts>
DILI, Basic N (hERG Warning)

> <Type>
Analog

> <POSE_NUMBER>
4

> <LibDockScore>
125.3371

> <HotSpots>
-6.33,-26.32,51.98,A,57,1
-6.13,-22.12,49.98,A,41,8
1.27,-23.52,47.59,A,27,23

$$$$
11
  SciTegic05082609073D

 68 72  0  0  0  0            999 V2000
   -4.3255  -30.6232   56.7793 Cl  0  0  0  1  0  0
   -4.1782  -31.6802   55.4256 C   0  0  0  1  0  0
   -4.6210  -31.3555   54.1039 C   0  0  0  1  0  0
   -3.5812  -32.9291   55.6918 C   0  0  0  1  0  0
   -4.4424  -32.3405   53.0996 C   0  0  0  1  0  0
   -5.2715  -30.0075   53.7567 C   0  0  0  1  0  0
   -3.4124  -33.8730   54.6718 C   0  0  0  1  0  0
   -3.8427  -33.5770   53.3752 C   0  0  0  1  0  0
   -6.6750  -29.9042   54.3746 C   0  0  0  1  0  0
   -5.5287  -29.7964   52.2105 C   0  0  0  1  0  0
   -4.3755  -28.8175   54.2791 C   0  0  0  1  0  0
   -6.7992  -29.5721   55.5339 O   0  0  0  1  0  0
   -7.7963  -30.1549   53.5962 N   0  0  0  1  0  0
   -4.3242  -29.3230   51.3791 C   0  0  0  1  0  0
   -3.2124  -28.3967   53.3608 C   0  0  0  1  0  0
   -9.0301  -30.5573   54.0801 C   0  0  0  1  0  0
   -3.7817  -28.1168   52.0276 N   0  0  0  1  0  0
  -10.2164  -30.5488   53.2780 C   0  0  0  1  0  0
   -9.1090  -31.0044   55.4196 C   0  0  0  1  0  0
   -3.9104  -26.8440   51.4903 C   0  0  0  1  0  0
  -10.3452  -30.1042   52.0249 O   0  0  0  1  0  0
  -11.4122  -31.0383   53.8399 C   0  0  0  1  0  0
  -10.3178  -31.4588   55.9600 C   0  0  0  1  0  0
   -5.0869  -26.5039   50.7845 C   0  0  0  1  0  0
   -2.9013  -25.8683   51.6450 C   0  0  0  1  0  0
   -9.2820  -29.5624   51.2366 C   0  0  0  1  0  0
  -11.4754  -31.4864   55.1698 C   0  0  0  1  0  0
   -5.2601  -25.2148   50.2642 C   0  0  0  1  0  0
   -3.0760  -24.5762   51.1183 C   0  0  0  1  0  0
  -12.7576  -31.9878   55.7470 C   0  0  0  1  0  0
   -4.2592  -24.2430   50.4340 C   0  0  0  1  0  0
   -4.4721  -22.8557   49.8787 C   0  0  0  1  0  0
   -4.0098  -22.7188   48.4366 C   0  0  0  1  0  0
   -4.3914  -21.6454   50.7965 C   0  0  0  1  0  0
   -5.7332  -22.1075   50.2832 C   0  0  0  1  0  0
   -4.7224  -23.1459   47.5566 O   0  0  0  1  0  0
   -2.8391  -22.1364   48.1783 O   0  0  0  1  0  0
   -3.2474  -33.1624   56.7028 H   0  0
   -4.7809  -32.1302   52.0851 H   0  0
   -2.9473  -34.8348   54.8878 H   0  0
   -3.7117  -34.3084   52.5777 H   0  0
   -5.8902  -30.7341   51.7885 H   0  0
   -6.3355  -29.0738   52.0883 H   0  0
   -3.9652  -29.0916   55.2510 H   0  0
   -5.0139  -27.9500   54.4462 H   0  0
   -7.7000  -30.0272   52.5382 H   0  0
   -4.6473  -29.0820   50.3664 H   0  0
   -3.5630  -30.1029   51.3577 H   0  0
   -2.7389  -27.4976   53.7552 H   0  0
   -2.4874  -29.2074   53.2886 H   0  0
   -8.2138  -30.9950   56.0414 H   0  0
  -12.3124  -31.0701   53.2262 H   0  0
  -10.3590  -31.7918   56.9971 H   0  0
   -5.8670  -27.2520   50.6437 H   0  0
   -1.9823  -26.1180   52.1754 H   0  0
   -8.5309  -30.3520   51.2600 H   0  0
   -8.8960  -28.7582   51.8630 H   0  0
   -9.5465  -29.2417   50.2290 H   0  0
   -6.1743  -24.9647   49.7258 H   0  0
   -2.2913  -23.8296   51.2407 H   0  0
  -13.0659  -32.7911   55.0779 H   0  0
  -13.4627  -31.1687   55.6057 H   0  0
  -12.6875  -32.3088   56.7863 H   0  0
   -4.0393  -20.7621   50.2637 H   0  0
   -4.2339  -21.9406   51.8339 H   0  0
   -6.2917  -22.6484   51.0471 H   0  0
   -6.0963  -21.4711   49.4762 H   0  0
   -2.1354  -22.6870   48.7298 H   0  0
  1  2  1  0
  2  3  2  0
  2  4  1  0
  3  5  1  0
  3  6  1  0
  4  7  2  0
  5  8  2  0
  6  9  1  0
  6 10  1  0
  6 11  1  0
  7  8  1  0
  9 12  2  0
  9 13  1  0
 10 14  1  0
 11 15  1  0
 13 16  1  0
 14 17  1  0
 15 17  1  0
 16 18  2  0
 16 19  1  0
 17 20  1  0
 18 21  1  0
 18 22  1  0
 19 23  2  0
 20 24  2  0
 20 25  1  0
 21 26  1  0
 22 27  2  0
 23 27  1  0
 24 28  1  0
 25 29  2  0
 27 30  1  0
 28 31  2  0
 29 31  1  0
 31 32  1  0
 32 33  1  0
 32 34  1  0
 32 35  1  0
 33 36  2  0
 33 37  1  0
 34 35  1  0
  4 38  1  0
  5 39  1  0
  7 40  1  0
  8 41  1  0
 10 42  1  0
 10 43  1  0
 11 44  1  0
 11 45  1  0
 13 46  1  0
 14 47  1  0
 14 48  1  0
 15 49  1  0
 15 50  1  0
 19 51  1  0
 22 52  1  0
 23 53  1  0
 24 54  1  0
 25 55  1  0
 26 56  1  0
 26 57  1  0
 26 58  1  0
 28 59  1  0
 29 60  1  0
 30 61  1  0
 30 62  1  0
 30 63  1  0
 34 64  1  0
 34 65  1  0
 35 66  1  0
 35 67  1  0
 37 68  1  0
M  END
> <Name>
11

> <AbsoluteEnergy>
72.9598

> <Clean Energy>
121.047

> <Column 1>
11

> <ConfNumber>
50

> <Filter_Pass>
Failed

> <IC50_nM>
65.29

> <LogP>
5.95

> <MOL_NUMBER>
8

> <QSAR_Score_pIC50>
7.185

> <RelativeEnergy>
9.68575

> <SMILES>
COc1cc(C)ccc1NC(=O)C1(c2ccccc2Cl)CCN(c2ccc(C3(C(=O)O)CC3)cc2)CC1

> <Toxicity_Alerts>
DILI, Basic N (hERG Warning)

> <Type>
Analog

> <POSE_NUMBER>
5

> <LibDockScore>
123.0615

> <HotSpots>
-4.13,-31.12,56.59,A,79,1
-3.33,-21.92,50.38,A,47,34
-4.73,-22.32,50.38,A,46,35

$$$$
11
  SciTegic05082609073D

 68 72  0  0  0  0            999 V2000
    0.1723  -24.9934   49.1296 Cl  0  0  0  1  0  0
    0.2018  -24.6921   50.8294 C   0  0  0  1  0  0
   -0.9508  -24.7982   51.6689 C   0  0  0  1  0  0
    1.4492  -24.3190   51.3729 C   0  0  0  1  0  0
   -0.7902  -24.4832   53.0419 C   0  0  0  1  0  0
   -2.3203  -25.2287   51.1161 C   0  0  0  1  0  0
    1.5745  -24.0354   52.7382 C   0  0  0  1  0  0
    0.4555  -24.1124   53.5727 C   0  0  0  1  0  0
   -2.7869  -24.2128   50.0588 C   0  0  0  1  0  0
   -3.4994  -25.1146   52.1643 C   0  0  0  1  0  0
   -2.2169  -26.7293   50.6249 C   0  0  0  1  0  0
   -2.8049  -23.0377   50.3597 O   0  0  0  1  0  0
   -3.1959  -24.5956   48.7853 N   0  0  0  1  0  0
   -3.6272  -26.2704   53.1807 C   0  0  0  1  0  0
   -2.3713  -27.7819   51.7406 C   0  0  0  1  0  0
   -3.9126  -23.7673   47.9427 C   0  0  0  1  0  0
   -3.6749  -27.5297   52.4113 N   0  0  0  1  0  0
   -5.0255  -23.0411   48.4354 C   0  0  0  1  0  0
   -3.5392  -23.6607   46.5847 C   0  0  0  1  0  0
   -4.8299  -28.3017   52.2264 C   0  0  0  1  0  0
   -5.3800  -23.2060   49.7128 O   0  0  0  1  0  0
   -5.7261  -22.1882   47.5546 C   0  0  0  1  0  0
   -4.2449  -22.8090   45.7255 C   0  0  0  1  0  0
   -6.1080  -27.7987   52.5816 C   0  0  0  1  0  0
   -4.7714  -29.5938   51.6574 C   0  0  0  1  0  0
   -6.5316  -22.5681   50.2842 C   0  0  0  1  0  0
   -5.3373  -22.0644   46.2043 C   0  0  0  1  0  0
   -7.2771  -28.5434   52.3309 C   0  0  0  1  0  0
   -5.9394  -30.3344   51.4038 C   0  0  0  1  0  0
   -6.0781  -21.1544   45.2857 C   0  0  0  1  0  0
   -7.2139  -29.8131   51.7134 C   0  0  0  1  0  0
   -8.4797  -30.6085   51.3826 C   0  0  0  1  0  0
   -9.7769  -29.8160   51.4464 C   0  0  0  1  0  0
   -8.5534  -32.0838   51.7428 C   0  0  0  1  0  0
   -8.4571  -31.6759   50.2934 C   0  0  0  1  0  0
  -10.2882  -29.6137   52.5259 O   0  0  0  1  0  0
  -10.3166  -29.3680   50.3137 O   0  0  0  1  0  0
    2.3227  -24.2510   50.7244 H   0  0
   -1.6561  -24.5301   53.7023 H   0  0
    2.5438  -23.7548   53.1502 H   0  0
    0.5501  -23.8848   54.6345 H   0  0
   -3.3816  -24.1826   52.7171 H   0  0
   -4.4401  -25.0305   51.6202 H   0  0
   -1.2517  -26.8748   50.1398 H   0  0
   -2.9843  -26.9052   49.8710 H   0  0
   -2.9437  -25.5772   48.4422 H   0  0
   -4.5456  -26.1557   53.7565 H   0  0
   -2.7613  -26.2758   53.8428 H   0  0
   -2.3679  -28.7817   51.3065 H   0  0
   -1.5603  -27.6775   52.4614 H   0  0
   -2.6997  -24.2427   46.2044 H   0  0
   -6.5788  -21.6179   47.9231 H   0  0
   -3.9459  -22.7230   44.6808 H   0  0
   -6.1866  -26.8205   53.0560 H   0  0
   -3.8014  -30.0250   51.4101 H   0  0
   -7.3534  -22.8811   49.6402 H   0  0
   -6.3692  -21.5078   50.0906 H   0  0
   -6.7072  -22.7877   51.3373 H   0  0
   -8.2457  -28.1340   52.6177 H   0  0
   -5.8593  -31.3272   50.9610 H   0  0
   -6.0357  -20.1776   45.7676 H   0  0
   -7.1138  -21.4902   45.3368 H   0  0
   -5.6924  -21.1367   44.2664 H   0  0
   -9.5675  -32.3802   52.0109 H   0  0
   -7.5996  -32.4507   52.1220 H   0  0
   -7.4515  -31.8231   49.8996 H   0  0
   -9.4204  -31.7510   49.7889 H   0  0
  -10.4471  -30.2217   49.7165 H   0  0
  1  2  1  0
  2  3  2  0
  2  4  1  0
  3  5  1  0
  3  6  1  0
  4  7  2  0
  5  8  2  0
  6  9  1  0
  6 10  1  0
  6 11  1  0
  7  8  1  0
  9 12  2  0
  9 13  1  0
 10 14  1  0
 11 15  1  0
 13 16  1  0
 14 17  1  0
 15 17  1  0
 16 18  2  0
 16 19  1  0
 17 20  1  0
 18 21  1  0
 18 22  1  0
 19 23  2  0
 20 24  2  0
 20 25  1  0
 21 26  1  0
 22 27  2  0
 23 27  1  0
 24 28  1  0
 25 29  2  0
 27 30  1  0
 28 31  2  0
 29 31  1  0
 31 32  1  0
 32 33  1  0
 32 34  1  0
 32 35  1  0
 33 36  2  0
 33 37  1  0
 34 35  1  0
  4 38  1  0
  5 39  1  0
  7 40  1  0
  8 41  1  0
 10 42  1  0
 10 43  1  0
 11 44  1  0
 11 45  1  0
 13 46  1  0
 14 47  1  0
 14 48  1  0
 15 49  1  0
 15 50  1  0
 19 51  1  0
 22 52  1  0
 23 53  1  0
 24 54  1  0
 25 55  1  0
 26 56  1  0
 26 57  1  0
 26 58  1  0
 28 59  1  0
 29 60  1  0
 30 61  1  0
 30 62  1  0
 30 63  1  0
 34 64  1  0
 34 65  1  0
 35 66  1  0
 35 67  1  0
 37 68  1  0
M  END
> <Name>
11

> <AbsoluteEnergy>
78.7717

> <Clean Energy>
121.047

> <Column 1>
11

> <ConfNumber>
91

> <Filter_Pass>
Failed

> <IC50_nM>
65.29

> <LogP>
5.95

> <MOL_NUMBER>
8

> <QSAR_Score_pIC50>
7.185

> <RelativeEnergy>
15.4976

> <SMILES>
COc1cc(C)ccc1NC(=O)C1(c2ccccc2Cl)CCN(c2ccc(C3(C(=O)O)CC3)cc2)CC1

> <Toxicity_Alerts>
DILI, Basic N (hERG Warning)

> <Type>
Analog

> <POSE_NUMBER>
6

> <LibDockScore>
122.7408

> <HotSpots>
0.87,-24.32,52.78,A,63,8
-6.13,-22.12,49.98,A,41,26
-6.33,-21.32,44.98,A,9,30

$$$$
11
  SciTegic05082609073D

 68 72  0  0  0  0            999 V2000
    0.2720  -26.0541   47.9955 Cl  0  0  0  1  0  0
   -1.0329  -26.5771   48.9867 C   0  0  0  1  0  0
   -1.5756  -25.8017   50.0580 C   0  0  0  1  0  0
   -1.5668  -27.8452   48.6817 C   0  0  0  1  0  0
   -2.7292  -26.3182   50.7050 C   0  0  0  1  0  0
   -0.9468  -24.4714   50.5219 C   0  0  0  1  0  0
   -2.6616  -28.3529   49.3918 C   0  0  0  1  0  0
   -3.2544  -27.5795   50.3935 C   0  0  0  1  0  0
   -0.8170  -23.4723   49.3555 C   0  0  0  1  0  0
   -1.7042  -23.7342   51.7020 C   0  0  0  1  0  0
    0.4573  -24.7816   51.1582 C   0  0  0  1  0  0
    0.2923  -23.1747   48.9710 O   0  0  0  1  0  0
   -1.8907  -22.8764   48.7091 N   0  0  0  1  0  0
   -1.3255  -24.1914   53.1353 C   0  0  0  1  0  0
    0.3881  -25.7899   52.3391 C   0  0  0  1  0  0
   -3.2181  -23.0254   49.0576 C   0  0  0  1  0  0
   -0.8830  -25.6084   53.1046 N   0  0  0  1  0  0
   -4.2005  -23.3243   48.0823 C   0  0  0  1  0  0
   -3.5901  -22.8740   50.4088 C   0  0  0  1  0  0
   -1.6384  -26.6758   53.6007 C   0  0  0  1  0  0
   -3.8345  -23.3850   46.8030 O   0  0  0  1  0  0
   -5.5299  -23.5593   48.5054 C   0  0  0  1  0  0
   -4.9143  -23.1008   50.8094 C   0  0  0  1  0  0
   -1.0142  -27.8800   54.0037 C   0  0  0  1  0  0
   -3.0515  -26.6048   53.6656 C   0  0  0  1  0  0
   -4.7783  -23.5495   45.7409 C   0  0  0  1  0  0
   -5.8868  -23.4625   49.8631 C   0  0  0  1  0  0
   -1.7785  -29.0129   54.3279 C   0  0  0  1  0  0
   -3.8142  -27.7354   53.9891 C   0  0  0  1  0  0
   -7.2861  -23.7433   50.3057 C   0  0  0  1  0  0
   -3.1817  -28.9555   54.2747 C   0  0  0  1  0  0
   -4.0057  -30.1951   54.5090 C   0  0  0  1  0  0
   -3.7261  -30.8586   55.8464 C   0  0  0  1  0  0
   -5.4264  -30.2408   53.9629 C   0  0  0  1  0  0
   -4.3493  -31.0774   53.3176 C   0  0  0  1  0  0
   -4.3257  -30.4767   56.8247 O   0  0  0  1  0  0
   -2.8314  -31.8435   55.9150 O   0  0  0  1  0  0
   -1.1218  -28.4384   47.8828 H   0  0
   -3.2216  -25.7149   51.4677 H   0  0
   -3.0494  -29.3459   49.1645 H   0  0
   -4.1240  -27.9568   50.9317 H   0  0
   -1.5165  -22.6636   51.6201 H   0  0
   -2.7770  -23.8727   51.5677 H   0  0
    1.1136  -25.1856   50.3874 H   0  0
    0.8987  -23.8509   51.5148 H   0  0
   -1.6714  -22.2490   47.8705 H   0  0
   -2.1927  -24.0967   53.7889 H   0  0
   -0.5162  -23.5670   53.5138 H   0  0
    0.4318  -26.8068   51.9491 H   0  0
    1.2358  -25.6271   53.0047 H   0  0
   -2.8439  -22.5789   51.1464 H   0  0
   -6.2895  -23.8194   47.7682 H   0  0
   -5.1899  -22.9961   51.8588 H   0  0
    0.0731  -27.9290   54.0633 H   0  0
   -3.5524  -25.6585   53.4613 H   0  0
   -5.4758  -22.7228   45.8759 H   0  0
   -5.3169  -24.4599   46.0038 H   0  0
   -4.3466  -23.5836   44.7406 H   0  0
   -1.2825  -29.9381   54.6212 H   0  0
   -4.9016  -27.6670   54.0190 H   0  0
   -7.4927  -24.7515   49.9465 H   0  0
   -7.9036  -23.0639   49.7182 H   0  0
   -7.4473  -23.6374   51.3785 H   0  0
   -5.6561  -29.3544   53.3716 H   0  0
   -6.0783  -30.8424   54.5963 H   0  0
   -4.4272  -32.1258   53.6056 H   0  0
   -4.0040  -30.6374   52.3821 H   0  0
   -1.9468  -31.4319   55.5269 H   0  0
  1  2  1  0
  2  3  2  0
  2  4  1  0
  3  5  1  0
  3  6  1  0
  4  7  2  0
  5  8  2  0
  6  9  1  0
  6 10  1  0
  6 11  1  0
  7  8  1  0
  9 12  2  0
  9 13  1  0
 10 14  1  0
 11 15  1  0
 13 16  1  0
 14 17  1  0
 15 17  1  0
 16 18  2  0
 16 19  1  0
 17 20  1  0
 18 21  1  0
 18 22  1  0
 19 23  2  0
 20 24  2  0
 20 25  1  0
 21 26  1  0
 22 27  2  0
 23 27  1  0
 24 28  1  0
 25 29  2  0
 27 30  1  0
 28 31  2  0
 29 31  1  0
 31 32  1  0
 32 33  1  0
 32 34  1  0
 32 35  1  0
 33 36  2  0
 33 37  1  0
 34 35  1  0
  4 38  1  0
  5 39  1  0
  7 40  1  0
  8 41  1  0
 10 42  1  0
 10 43  1  0
 11 44  1  0
 11 45  1  0
 13 46  1  0
 14 47  1  0
 14 48  1  0
 15 49  1  0
 15 50  1  0
 19 51  1  0
 22 52  1  0
 23 53  1  0
 24 54  1  0
 25 55  1  0
 26 56  1  0
 26 57  1  0
 26 58  1  0
 28 59  1  0
 29 60  1  0
 30 61  1  0
 30 62  1  0
 30 63  1  0
 34 64  1  0
 34 65  1  0
 35 66  1  0
 35 67  1  0
 37 68  1  0
M  END
> <Name>
11

> <AbsoluteEnergy>
73.6115

> <Clean Energy>
121.047

> <Column 1>
11

> <ConfNumber>
59

> <Filter_Pass>
Failed

> <IC50_nM>
65.29

> <LogP>
5.95

> <MOL_NUMBER>
8

> <QSAR_Score_pIC50>
7.185

> <RelativeEnergy>
10.3374

> <SMILES>
COc1cc(C)ccc1NC(=O)C1(c2ccccc2Cl)CCN(c2ccc(C3(C(=O)O)CC3)cc2)CC1

> <Toxicity_Alerts>
DILI, Basic N (hERG Warning)

> <Type>
Analog

> <POSE_NUMBER>
7

> <LibDockScore>
122.1398

> <HotSpots>
-5.53,-22.92,48.98,A,33,23
-2.93,-26.32,45.98,A,15,26
-6.53,-30.72,51.78,A,56,34

$$$$
11
  SciTegic05082609073D

 68 72  0  0  0  0            999 V2000
   -3.4393  -24.6168   47.9308 Cl  0  0  0  1  0  0
   -4.2869  -24.3001   49.3830 C   0  0  0  1  0  0
   -3.7607  -24.5373   50.6930 C   0  0  0  1  0  0
   -5.5674  -23.7570   49.2110 C   0  0  0  1  0  0
   -4.5321  -24.0412   51.7813 C   0  0  0  1  0  0
   -2.4350  -25.2787   50.9660 C   0  0  0  1  0  0
   -6.3306  -23.3524   50.3180 C   0  0  0  1  0  0
   -5.7988  -23.4793   51.6003 C   0  0  0  1  0  0
   -1.2504  -24.5586   50.2961 C   0  0  0  1  0  0
   -2.1359  -25.4341   52.4998 C   0  0  0  1  0  0
   -2.4886  -26.7528   50.4765 C   0  0  0  1  0  0
   -1.3932  -23.4500   49.8328 O   0  0  0  1  0  0
   -0.0128  -25.1924   50.2269 N   0  0  0  1  0  0
   -3.1483  -26.3023   53.2971 C   0  0  0  1  0  0
   -3.6443  -27.5410   51.1142 C   0  0  0  1  0  0
    1.2103  -24.5478   50.2553 C   0  0  0  1  0  0
   -3.5502  -27.5632   52.6053 N   0  0  0  1  0  0
    2.2164  -24.7928   51.2459 C   0  0  0  1  0  0
    1.4729  -23.6067   49.2308 C   0  0  0  1  0  0
   -3.8576  -28.7189   53.3008 C   0  0  0  1  0  0
    2.1379  -25.6196   52.2939 O   0  0  0  1  0  0
    3.4327  -24.0950   51.1556 C   0  0  0  1  0  0
    2.6956  -22.9258   49.1592 C   0  0  0  1  0  0
   -3.3463  -28.9742   54.5992 C   0  0  0  1  0  0
   -4.6950  -29.6730   52.7029 C   0  0  0  1  0  0
    0.9253  -26.0007   52.9484 C   0  0  0  1  0  0
    3.6775  -23.1665   50.1301 C   0  0  0  1  0  0
   -3.6314  -30.1832   55.2490 C   0  0  0  1  0  0
   -4.9837  -30.8785   53.3513 C   0  0  0  1  0  0
    4.9793  -22.4412   50.0532 C   0  0  0  1  0  0
   -4.4199  -31.1500   54.6097 C   0  0  0  1  0  0
   -4.6353  -32.4981   55.2554 C   0  0  0  1  0  0
   -3.8148  -33.5810   54.5485 C   0  0  0  1  0  0
   -6.0085  -32.8499   55.7887 C   0  0  0  1  0  0
   -4.8775  -32.6064   56.7490 C   0  0  0  1  0  0
   -2.8339  -34.0396   55.0885 O   0  0  0  1  0  0
   -4.1826  -33.9767   53.3297 O   0  0  0  1  0  0
   -5.9756  -23.6474   48.2063 H   0  0
   -4.1214  -24.1015   52.7892 H   0  0
   -7.3305  -22.9425   50.1759 H   0  0
   -6.3718  -23.1397   52.4631 H   0  0
   -2.1011  -24.4421   52.9502 H   0  0
   -1.1419  -25.8654   52.6180 H   0  0
   -2.6064  -26.7641   49.3929 H   0  0
   -1.5468  -27.2444   50.7202 H   0  0
   -0.0076  -26.2593   50.1456 H   0  0
   -2.7098  -26.5576   54.2618 H   0  0
   -4.0428  -25.7110   53.4928 H   0  0
   -3.6282  -28.5651   50.7414 H   0  0
   -4.5908  -27.0850   50.8240 H   0  0
    0.7071  -23.4073   48.4812 H   0  0
    4.2066  -24.2789   51.9008 H   0  0
    2.8817  -22.2144   48.3546 H   0  0
   -2.7279  -28.2257   55.0947 H   0  0
   -5.1256  -29.4725   51.7218 H   0  0
    0.3214  -26.3991   52.1331 H   0  0
    0.4791  -25.0426   53.2151 H   0  0
    1.0273  -26.6846   53.7910 H   0  0
   -3.2408  -30.3711   56.2491 H   0  0
   -5.6451  -31.6063   52.8811 H   0  0
    5.7325  -23.2283   50.0182 H   0  0
    5.0789  -21.9489   51.0206 H   0  0
    5.0574  -21.7462   49.2171 H   0  0
   -6.2213  -33.9132   55.6781 H   0  0
   -6.6869  -31.9981   55.7406 H   0  0
   -4.9491  -31.6238   57.2153 H   0  0
   -4.4823  -33.5391   57.1514 H   0  0
   -4.1963  -33.1012   52.7502 H   0  0
  1  2  1  0
  2  3  2  0
  2  4  1  0
  3  5  1  0
  3  6  1  0
  4  7  2  0
  5  8  2  0
  6  9  1  0
  6 10  1  0
  6 11  1  0
  7  8  1  0
  9 12  2  0
  9 13  1  0
 10 14  1  0
 11 15  1  0
 13 16  1  0
 14 17  1  0
 15 17  1  0
 16 18  2  0
 16 19  1  0
 17 20  1  0
 18 21  1  0
 18 22  1  0
 19 23  2  0
 20 24  2  0
 20 25  1  0
 21 26  1  0
 22 27  2  0
 23 27  1  0
 24 28  1  0
 25 29  2  0
 27 30  1  0
 28 31  2  0
 29 31  1  0
 31 32  1  0
 32 33  1  0
 32 34  1  0
 32 35  1  0
 33 36  2  0
 33 37  1  0
 34 35  1  0
  4 38  1  0
  5 39  1  0
  7 40  1  0
  8 41  1  0
 10 42  1  0
 10 43  1  0
 11 44  1  0
 11 45  1  0
 13 46  1  0
 14 47  1  0
 14 48  1  0
 15 49  1  0
 15 50  1  0
 19 51  1  0
 22 52  1  0
 23 53  1  0
 24 54  1  0
 25 55  1  0
 26 56  1  0
 26 57  1  0
 26 58  1  0
 28 59  1  0
 29 60  1  0
 30 61  1  0
 30 62  1  0
 30 63  1  0
 34 64  1  0
 34 65  1  0
 35 66  1  0
 35 67  1  0
 37 68  1  0
M  END
> <Name>
11

> <AbsoluteEnergy>
75.3784

> <Clean Energy>
121.047

> <Column 1>
11

> <ConfNumber>
74

> <Filter_Pass>
Failed

> <IC50_nM>
65.29

> <LogP>
5.95

> <MOL_NUMBER>
8

> <QSAR_Score_pIC50>
7.185

> <RelativeEnergy>
12.1043

> <SMILES>
COc1cc(C)ccc1NC(=O)C1(c2ccccc2Cl)CCN(c2ccc(C3(C(=O)O)CC3)cc2)CC1

> <Toxicity_Alerts>
DILI, Basic N (hERG Warning)

> <Type>
Analog

> <POSE_NUMBER>
8

> <LibDockScore>
119.491

> <HotSpots>
2.67,-22.92,49.98,A,39,22
0.87,-24.32,52.78,A,63,26
-3.33,-33.72,54.98,P,58,36

$$$$
11
  SciTegic05082609073D

 68 72  0  0  0  0            999 V2000
   -4.9787  -23.2750   51.1411 Cl  0  0  0  1  0  0
   -4.5548  -23.4735   49.4981 C   0  0  0  1  0  0
   -3.6430  -24.4527   48.9872 C   0  0  0  1  0  0
   -5.2039  -22.5697   48.6265 C   0  0  0  1  0  0
   -3.4886  -24.5002   47.5702 C   0  0  0  1  0  0
   -2.8169  -25.4711   49.8163 C   0  0  0  1  0  0
   -4.9885  -22.6215   47.2497 C   0  0  0  1  0  0
   -4.1367  -23.5945   46.7164 C   0  0  0  1  0  0
   -1.3333  -25.3595   49.3919 C   0  0  0  1  0  0
   -3.3186  -26.9127   49.4821 C   0  0  0  1  0  0
   -2.7734  -25.2920   51.3882 C   0  0  0  1  0  0
   -0.8004  -26.2858   48.8213 O   0  0  0  1  0  0
   -0.6171  -24.2000   49.6728 N   0  0  0  1  0  0
   -4.5372  -27.3648   50.2997 C   0  0  0  1  0  0
   -3.6956  -26.1314   52.3200 C   0  0  0  1  0  0
    0.7641  -24.0561   49.6472 C   0  0  0  1  0  0
   -4.1703  -27.4160   51.7378 N   0  0  0  1  0  0
    1.5457  -24.3597   48.4973 C   0  0  0  1  0  0
    1.4033  -23.5753   50.8110 C   0  0  0  1  0  0
   -4.2669  -28.5848   52.4957 C   0  0  0  1  0  0
    0.9221  -24.7729   47.3866 O   0  0  0  1  0  0
    2.9502  -24.2035   48.5635 C   0  0  0  1  0  0
    2.7985  -23.4260   50.8543 C   0  0  0  1  0  0
   -3.6311  -28.6866   53.7531 C   0  0  0  1  0  0
   -5.0040  -29.6966   52.0207 C   0  0  0  1  0  0
    1.6260  -25.1561   46.2016 C   0  0  0  1  0  0
    3.5836  -23.7428   49.7368 C   0  0  0  1  0  0
   -3.7447  -29.8588   54.5242 C   0  0  0  1  0  0
   -5.1072  -30.8726   52.7869 C   0  0  0  1  0  0
    5.0733  -23.5896   49.7967 C   0  0  0  1  0  0
   -4.4861  -30.9567   54.0482 C   0  0  0  1  0  0
   -4.6234  -32.2196   54.8815 C   0  0  0  1  0  0
   -5.8226  -32.2064   55.8311 C   0  0  0  1  0  0
   -3.3640  -32.9720   55.2852 C   0  0  0  1  0  0
   -4.2777  -33.5560   54.2345 C   0  0  0  1  0  0
   -6.6651  -31.3475   55.6950 O   0  0  0  1  0  0
   -5.9302  -33.1302   56.7885 O   0  0  0  1  0  0
   -5.8825  -21.8216   49.0363 H   0  0
   -2.8456  -25.2657   47.1358 H   0  0
   -5.4821  -21.9064   46.5915 H   0  0
   -3.9766  -23.6491   45.6396 H   0  0
   -3.5715  -26.9596   48.4229 H   0  0
   -2.5039  -27.6169   49.6510 H   0  0
   -2.9563  -24.2400   51.6073 H   0  0
   -1.7452  -25.4548   51.7112 H   0  0
   -1.1871  -23.3331   49.9345 H   0  0
   -4.8512  -28.3550   49.9695 H   0  0
   -5.3536  -26.6567   50.1580 H   0  0
   -3.1580  -26.3465   53.2435 H   0  0
   -4.5643  -25.5302   52.5885 H   0  0
    0.8065  -23.3171   51.6858 H   0  0
    3.5556  -24.4442   47.6896 H   0  0
    3.2752  -23.0609   51.7640 H   0  0
   -3.0459  -27.8480   54.1305 H   0  0
   -5.4972  -29.6410   51.0503 H   0  0
    2.3082  -25.9352   46.5416 H   0  0
    2.2388  -24.2857   45.9670 H   0  0
    0.9967  -25.4724   45.3697 H   0  0
   -3.2553  -29.9167   55.4964 H   0  0
   -5.6707  -31.7227   52.4022 H   0  0
    5.3150  -22.9243   48.9678 H   0  0
    5.4618  -24.5742   49.5364 H   0  0
    5.4503  -23.2266   50.7528 H   0  0
   -3.4865  -33.4703   56.2468 H   0  0
   -2.4733  -32.5270   54.8416 H   0  0
   -3.8745  -33.4214   53.2308 H   0  0
   -4.8891  -34.3638   54.6366 H   0  0
   -5.0377  -33.0482   57.3355 H   0  0
  1  2  1  0
  2  3  2  0
  2  4  1  0
  3  5  1  0
  3  6  1  0
  4  7  2  0
  5  8  2  0
  6  9  1  0
  6 10  1  0
  6 11  1  0
  7  8  1  0
  9 12  2  0
  9 13  1  0
 10 14  1  0
 11 15  1  0
 13 16  1  0
 14 17  1  0
 15 17  1  0
 16 18  2  0
 16 19  1  0
 17 20  1  0
 18 21  1  0
 18 22  1  0
 19 23  2  0
 20 24  2  0
 20 25  1  0
 21 26  1  0
 22 27  2  0
 23 27  1  0
 24 28  1  0
 25 29  2  0
 27 30  1  0
 28 31  2  0
 29 31  1  0
 31 32  1  0
 32 33  1  0
 32 34  1  0
 32 35  1  0
 33 36  2  0
 33 37  1  0
 34 35  1  0
  4 38  1  0
  5 39  1  0
  7 40  1  0
  8 41  1  0
 10 42  1  0
 10 43  1  0
 11 44  1  0
 11 45  1  0
 13 46  1  0
 14 47  1  0
 14 48  1  0
 15 49  1  0
 15 50  1  0
 19 51  1  0
 22 52  1  0
 23 53  1  0
 24 54  1  0
 25 55  1  0
 26 56  1  0
 26 57  1  0
 26 58  1  0
 28 59  1  0
 29 60  1  0
 30 61  1  0
 30 62  1  0
 30 63  1  0
 34 64  1  0
 34 65  1  0
 35 66  1  0
 35 67  1  0
 37 68  1  0
M  END
> <Name>
11

> <AbsoluteEnergy>
78.9946

> <Clean Energy>
121.047

> <Column 1>
11

> <ConfNumber>
94

> <Filter_Pass>
Failed

> <IC50_nM>
65.29

> <LogP>
5.95

> <MOL_NUMBER>
8

> <QSAR_Score_pIC50>
7.185

> <RelativeEnergy>
15.7206

> <SMILES>
COc1cc(C)ccc1NC(=O)C1(c2ccccc2Cl)CCN(c2ccc(C3(C(=O)O)CC3)cc2)CC1

> <Toxicity_Alerts>
DILI, Basic N (hERG Warning)

> <Type>
Analog

> <POSE_NUMBER>
9

> <LibDockScore>
115.1359

> <HotSpots>
-5.53,-22.92,48.98,A,33,4
2.67,-23.92,48.98,A,32,22
4.67,-22.92,49.98,A,40,30

$$$$
11
  SciTegic05082609073D

 68 72  0  0  0  0            999 V2000
   -5.0472  -26.5388   51.6408 Cl  0  0  0  1  0  0
   -3.7339  -27.3962   50.9402 C   0  0  0  1  0  0
   -2.4271  -26.8618   50.6787 C   0  0  0  1  0  0
   -4.0338  -28.7339   50.6099 C   0  0  0  1  0  0
   -1.5246  -27.7051   49.9770 C   0  0  0  1  0  0
   -1.9079  -25.4605   51.0867 C   0  0  0  1  0  0
   -3.0914  -29.5513   49.9794 C   0  0  0  1  0  0
   -1.8413  -29.0286   49.6426 C   0  0  0  1  0  0
   -1.6485  -24.6476   49.8169 C   0  0  0  1  0  0
   -0.5842  -25.5841   51.9294 C   0  0  0  1  0  0
   -2.7856  -24.6236   52.0891 C   0  0  0  1  0  0
   -0.5385  -24.2171   49.6003 O   0  0  0  1  0  0
   -2.6938  -24.4276   48.9330 N   0  0  0  1  0  0
   -0.7399  -26.4424   53.2141 C   0  0  0  1  0  0
   -2.8569  -25.1680   53.5440 C   0  0  0  1  0  0
   -2.8262  -23.4318   47.9667 C   0  0  0  1  0  0
   -2.1693  -26.4872   53.6576 N   0  0  0  1  0  0
   -3.7942  -23.5998   46.9383 C   0  0  0  1  0  0
   -2.0321  -22.2604   47.9785 C   0  0  0  1  0  0
   -2.8099  -27.6794   54.0055 C   0  0  0  1  0  0
   -4.5467  -24.7018   46.9408 O   0  0  0  1  0  0
   -3.9284  -22.6023   45.9449 C   0  0  0  1  0  0
   -2.1775  -21.2844   46.9829 C   0  0  0  1  0  0
   -4.2048  -27.8454   53.8180 C   0  0  0  1  0  0
   -2.0751  -28.7771   54.5149 C   0  0  0  1  0  0
   -5.2600  -25.1553   45.7854 C   0  0  0  1  0  0
   -3.1238  -21.4508   45.9604 C   0  0  0  1  0  0
   -4.8095  -29.0971   53.9909 C   0  0  0  1  0  0
   -2.6782  -30.0356   54.6711 C   0  0  0  1  0  0
   -3.2737  -20.4060   44.9019 C   0  0  0  1  0  0
   -4.0343  -30.2090   54.3506 C   0  0  0  1  0  0
   -4.6631  -31.5829   54.3550 C   0  0  0  1  0  0
   -5.2168  -31.9740   52.9743 C   0  0  0  1  0  0
   -4.0918  -32.6435   55.2853 C   0  0  0  1  0  0
   -5.4372  -32.0234   55.5866 C   0  0  0  1  0  0
   -5.8142  -31.1498   52.3172 O   0  0  0  1  0  0
   -5.0485  -33.2080   52.5015 O   0  0  0  1  0  0
   -5.0174  -29.1374   50.8504 H   0  0
   -0.5511  -27.3086   49.6884 H   0  0
   -3.3309  -30.5901   49.7521 H   0  0
   -1.1129  -29.6490   49.1204 H   0  0
    0.1923  -26.0248   51.3041 H   0  0
   -0.2503  -24.5858   52.2122 H   0  0
   -2.4003  -23.6045   52.1201 H   0  0
   -3.7996  -24.5600   51.6942 H   0  0
   -3.5100  -25.1160   49.0020 H   0  0
   -0.3944  -27.4566   53.0136 H   0  0
   -0.1306  -26.0145   54.0102 H   0  0
   -3.9009  -25.2820   53.8357 H   0  0
   -2.3804  -24.4563   54.2182 H   0  0
   -1.2984  -22.1154   48.7715 H   0  0
   -4.6681  -22.7289   45.1544 H   0  0
   -1.5523  -20.3917   47.0032 H   0  0
   -4.8152  -26.9877   53.5355 H   0  0
   -1.0286  -28.6438   54.7892 H   0  0
   -4.4890  -25.2489   45.0206 H   0  0
   -5.8758  -24.3008   45.5047 H   0  0
   -5.8364  -26.0698   45.9253 H   0  0
   -5.8842  -29.2070   53.8456 H   0  0
   -2.0936  -30.8779   55.0411 H   0  0
   -4.3237  -20.1163   44.9438 H   0  0
   -3.1274  -20.9390   43.9624 H   0  0
   -2.5990  -19.5571   45.0127 H   0  0
   -3.3090  -32.2353   55.9245 H   0  0
   -4.1954  -33.6430   54.8629 H   0  0
   -6.2560  -32.6942   55.3264 H   0  0
   -5.3697  -31.2859   56.3863 H   0  0
   -5.4584  -33.8285   53.2428 H   0  0
  1  2  1  0
  2  3  2  0
  2  4  1  0
  3  5  1  0
  3  6  1  0
  4  7  2  0
  5  8  2  0
  6  9  1  0
  6 10  1  0
  6 11  1  0
  7  8  1  0
  9 12  2  0
  9 13  1  0
 10 14  1  0
 11 15  1  0
 13 16  1  0
 14 17  1  0
 15 17  1  0
 16 18  2  0
 16 19  1  0
 17 20  1  0
 18 21  1  0
 18 22  1  0
 19 23  2  0
 20 24  2  0
 20 25  1  0
 21 26  1  0
 22 27  2  0
 23 27  1  0
 24 28  1  0
 25 29  2  0
 27 30  1  0
 28 31  2  0
 29 31  1  0
 31 32  1  0
 32 33  1  0
 32 34  1  0
 32 35  1  0
 33 36  2  0
 33 37  1  0
 34 35  1  0
  4 38  1  0
  5 39  1  0
  7 40  1  0
  8 41  1  0
 10 42  1  0
 10 43  1  0
 11 44  1  0
 11 45  1  0
 13 46  1  0
 14 47  1  0
 14 48  1  0
 15 49  1  0
 15 50  1  0
 19 51  1  0
 22 52  1  0
 23 53  1  0
 24 54  1  0
 25 55  1  0
 26 56  1  0
 26 57  1  0
 26 58  1  0
 28 59  1  0
 29 60  1  0
 30 61  1  0
 30 62  1  0
 30 63  1  0
 34 64  1  0
 34 65  1  0
 35 66  1  0
 35 67  1  0
 37 68  1  0
M  END
> <Name>
11

> <AbsoluteEnergy>
78.9748

> <Clean Energy>
121.047

> <Column 1>
11

> <ConfNumber>
93

> <Filter_Pass>
Failed

> <IC50_nM>
65.29

> <LogP>
5.95

> <MOL_NUMBER>
8

> <QSAR_Score_pIC50>
7.185

> <RelativeEnergy>
15.7007

> <SMILES>
COc1cc(C)ccc1NC(=O)C1(c2ccccc2Cl)CCN(c2ccc(C3(C(=O)O)CC3)cc2)CC1

> <Toxicity_Alerts>
DILI, Basic N (hERG Warning)

> <Type>
Analog

> <POSE_NUMBER>
10

> <LibDockScore>
111.9938

> <HotSpots>
-2.53,-22.32,48.19,A,29,19
-3.53,-20.52,45.19,A,12,30
-4.33,-32.92,55.19,A,75,34

$$$$
11
  SciTegic05082609073D

 68 72  0  0  0  0            999 V2000
    2.1722  -23.5805   50.9470 Cl  0  0  0  1  0  0
    1.6694  -24.3452   49.4918 C   0  0  0  1  0  0
    0.3994  -24.9646   49.2816 C   0  0  0  1  0  0
    2.6201  -24.3349   48.4492 C   0  0  0  1  0  0
    0.1555  -25.5597   48.0176 C   0  0  0  1  0  0
   -0.7713  -25.0675   50.2665 C   0  0  0  1  0  0
    2.3435  -24.9287   47.2100 C   0  0  0  1  0  0
    1.1069  -25.5444   46.9945 C   0  0  0  1  0  0
   -2.0610  -24.7370   49.4891 C   0  0  0  1  0  0
   -0.8271  -24.1147   51.5096 C   0  0  0  1  0  0
   -0.7409  -26.5369   50.8442 C   0  0  0  1  0  0
   -3.0044  -25.4967   49.5406 O   0  0  0  1  0  0
   -2.1043  -23.5689   48.7286 N   0  0  0  1  0  0
   -2.0874  -24.3616   52.3963 C   0  0  0  1  0  0
   -1.2095  -26.6915   52.3036 C   0  0  0  1  0  0
   -3.1089  -23.1144   47.8758 C   0  0  0  1  0  0
   -2.3875  -25.8224   52.5021 N   0  0  0  1  0  0
   -2.7733  -22.2080   46.8273 C   0  0  0  1  0  0
   -4.4538  -23.5168   48.0338 C   0  0  0  1  0  0
   -3.6565  -26.3722   52.6408 C   0  0  0  1  0  0
   -1.5022  -21.8347   46.6744 O   0  0  0  1  0  0
   -3.7982  -21.7323   45.9733 C   0  0  0  1  0  0
   -5.4520  -23.0374   47.1737 C   0  0  0  1  0  0
   -3.8430  -27.5856   53.3462 C   0  0  0  1  0  0
   -4.7769  -25.7623   52.0340 C   0  0  0  1  0  0
   -1.0297  -21.1419   45.5113 C   0  0  0  1  0  0
   -5.1309  -22.1411   46.1414 C   0  0  0  1  0  0
   -5.0725  -28.2594   53.2867 C   0  0  0  1  0  0
   -6.0050  -26.4381   51.9740 C   0  0  0  1  0  0
   -6.1932  -21.6196   45.2285 C   0  0  0  1  0  0
   -6.1290  -27.7213   52.5331 C   0  0  0  1  0  0
   -7.3706  -28.5408   52.2901 C   0  0  0  1  0  0
   -7.0079  -29.9427   51.7973 C   0  0  0  1  0  0
   -8.6309  -27.8811   51.7569 C   0  0  0  1  0  0
   -8.5780  -28.3450   53.1943 C   0  0  0  1  0  0
   -7.8034  -30.8454   51.9331 O   0  0  0  1  0  0
   -5.8067  -30.1408   51.2357 O   0  0  0  1  0  0
    3.5864  -23.8569   48.6102 H   0  0
   -0.8043  -26.0442   47.8387 H   0  0
    3.0905  -24.9105   46.4165 H   0  0
    0.8863  -26.0098   46.0339 H   0  0
   -0.8321  -23.0802   51.1662 H   0  0
    0.0673  -24.2657   52.1140 H   0  0
    0.2761  -26.9212   50.7658 H   0  0
   -1.3628  -27.1715   50.2128 H   0  0
   -1.2475  -22.9333   48.8112 H   0  0
   -2.9439  -23.8504   51.9568 H   0  0
   -1.9108  -23.9584   53.3935 H   0  0
   -1.4839  -27.7294   52.4924 H   0  0
   -0.4112  -26.3864   52.9801 H   0  0
   -4.7187  -24.2081   48.8338 H   0  0
   -3.5481  -21.0370   45.1720 H   0  0
   -6.4838  -23.3625   47.3072 H   0  0
   -3.0268  -27.9987   53.9389 H   0  0
   -4.6869  -24.7620   51.6104 H   0  0
   -1.6715  -20.2629   45.4510 H   0  0
   -1.3143  -21.7930   44.6847 H   0  0
    0.0323  -20.8965   45.5164 H   0  0
   -5.2075  -29.1981   53.8240 H   0  0
   -6.8630  -25.9677   51.4937 H   0  0
   -5.8565  -21.8811   44.2253 H   0  0
   -6.1320  -20.5348   45.3150 H   0  0
   -7.1910  -22.0003   45.4465 H   0  0
   -9.2087  -28.5649   51.1351 H   0  0
   -8.5143  -26.8002   51.6789 H   0  0
   -8.4329  -27.5108   53.8807 H   0  0
   -9.1259  -29.2765   53.3365 H   0  0
   -5.1114  -29.8225   51.9553 H   0  0
  1  2  1  0
  2  3  2  0
  2  4  1  0
  3  5  1  0
  3  6  1  0
  4  7  2  0
  5  8  2  0
  6  9  1  0
  6 10  1  0
  6 11  1  0
  7  8  1  0
  9 12  2  0
  9 13  1  0
 10 14  1  0
 11 15  1  0
 13 16  1  0
 14 17  1  0
 15 17  1  0
 16 18  2  0
 16 19  1  0
 17 20  1  0
 18 21  1  0
 18 22  1  0
 19 23  2  0
 20 24  2  0
 20 25  1  0
 21 26  1  0
 22 27  2  0
 23 27  1  0
 24 28  1  0
 25 29  2  0
 27 30  1  0
 28 31  2  0
 29 31  1  0
 31 32  1  0
 32 33  1  0
 32 34  1  0
 32 35  1  0
 33 36  2  0
 33 37  1  0
 34 35  1  0
  4 38  1  0
  5 39  1  0
  7 40  1  0
  8 41  1  0
 10 42  1  0
 10 43  1  0
 11 44  1  0
 11 45  1  0
 13 46  1  0
 14 47  1  0
 14 48  1  0
 15 49  1  0
 15 50  1  0
 19 51  1  0
 22 52  1  0
 23 53  1  0
 24 54  1  0
 25 55  1  0
 26 56  1  0
 26 57  1  0
 26 58  1  0
 28 59  1  0
 29 60  1  0
 30 61  1  0
 30 62  1  0
 30 63  1  0
 34 64  1  0
 34 65  1  0
 35 66  1  0
 35 67  1  0
 37 68  1  0
M  END
> <Name>
11

> <AbsoluteEnergy>
77.7908

> <Clean Energy>
121.047

> <Column 1>
11

> <ConfNumber>
81

> <Filter_Pass>
Failed

> <IC50_nM>
65.29

> <LogP>
5.95

> <MOL_NUMBER>
8

> <QSAR_Score_pIC50>
7.185

> <RelativeEnergy>
14.5168

> <SMILES>
COc1cc(C)ccc1NC(=O)C1(c2ccccc2Cl)CCN(c2ccc(C3(C(=O)O)CC3)cc2)CC1

> <Toxicity_Alerts>
DILI, Basic N (hERG Warning)

> <Type>
Analog

> <POSE_NUMBER>
11

> <LibDockScore>
111.8277

> <HotSpots>
2.67,-22.92,49.98,A,39,1
-4.93,-23.52,47.59,A,26,23
-5.93,-22.12,45.59,A,14,30

$$$$
11
  SciTegic05082609073D

 68 72  0  0  0  0            999 V2000
    0.5167  -24.5730   47.4468 Cl  0  0  0  1  0  0
    1.2490  -24.6068   49.0085 C   0  0  0  1  0  0
    0.5129  -24.6438   50.2357 C   0  0  0  1  0  0
    2.6579  -24.5829   49.0201 C   0  0  0  1  0  0
    1.2609  -24.5907   51.4402 C   0  0  0  1  0  0
   -1.0259  -24.7280   50.2718 C   0  0  0  1  0  0
    3.3624  -24.5643   50.2287 C   0  0  0  1  0  0
    2.6628  -24.5611   51.4387 C   0  0  0  1  0  0
   -1.6462  -23.5677   49.4617 C   0  0  0  1  0  0
   -1.4737  -26.1400   49.7353 C   0  0  0  1  0  0
   -1.6351  -24.5575   51.7172 C   0  0  0  1  0  0
   -0.9461  -22.6516   49.0883 O   0  0  0  1  0  0
   -3.0065  -23.5699   49.1754 N   0  0  0  1  0  0
   -1.2442  -27.2845   50.7333 C   0  0  0  1  0  0
   -1.5181  -25.7713   52.6726 C   0  0  0  1  0  0
   -3.6710  -22.9800   48.1008 C   0  0  0  1  0  0
   -1.9914  -26.9899   51.9793 N   0  0  0  1  0  0
   -5.0907  -23.0484   48.0373 C   0  0  0  1  0  0
   -2.9803  -22.3290   47.0508 C   0  0  0  1  0  0
   -3.0727  -27.7468   52.4187 C   0  0  0  1  0  0
   -5.8107  -23.6340   48.9847 O   0  0  0  1  0  0
   -5.7747  -22.4926   46.9423 C   0  0  0  1  0  0
   -3.6762  -21.7625   45.9716 C   0  0  0  1  0  0
   -3.9192  -28.3868   51.4856 C   0  0  0  1  0  0
   -3.3583  -27.8815   53.7965 C   0  0  0  1  0  0
   -5.7154  -23.1813   50.3378 C   0  0  0  1  0  0
   -5.0770  -21.8450   45.9090 C   0  0  0  1  0  0
   -5.0326  -29.1255   51.9170 C   0  0  0  1  0  0
   -4.4767  -28.6140   54.2264 C   0  0  0  1  0  0
   -5.8276  -21.2532   44.7612 C   0  0  0  1  0  0
   -5.3234  -29.2309   53.2880 C   0  0  0  1  0  0
   -6.5424  -29.9937   53.7447 C   0  0  0  1  0  0
   -7.5322  -29.1110   54.4863 C   0  0  0  1  0  0
   -6.4017  -31.4456   54.1749 C   0  0  0  1  0  0
   -7.0905  -31.1137   52.8732 C   0  0  0  1  0  0
   -8.4620  -28.6305   53.8798 O   0  0  0  1  0  0
   -7.3475  -28.8832   55.7853 O   0  0  0  1  0  0
    3.2048  -24.5789   48.0772 H   0  0
    0.7313  -24.5724   52.3927 H   0  0
    4.4523  -24.5524   50.2267 H   0  0
    3.2077  -24.5356   52.3824 H   0  0
   -0.9270  -26.3595   48.8182 H   0  0
   -2.5334  -26.1016   49.4831 H   0  0
   -1.1582  -23.7005   52.1928 H   0  0
   -2.6897  -24.3000   51.6191 H   0  0
   -3.6262  -24.0941   49.8725 H   0  0
   -1.6042  -28.2199   50.3049 H   0  0
   -0.1806  -27.3670   50.9572 H   0  0
   -2.1285  -25.5979   53.5588 H   0  0
   -0.4771  -25.9027   52.9677 H   0  0
   -1.8925  -22.2667   47.0807 H   0  0
   -6.8612  -22.5650   46.8942 H   0  0
   -3.1268  -21.2560   45.1780 H   0  0
   -3.7056  -28.3062   50.4198 H   0  0
   -2.7046  -27.4126   54.5319 H   0  0
   -5.9630  -22.1204   50.3009 H   0  0
   -4.6577  -23.2582   50.5896 H   0  0
   -6.3487  -23.7311   51.0340 H   0  0
   -5.6735  -29.6188   51.1863 H   0  0
   -4.6894  -28.7048   55.2916 H   0  0
   -6.5348  -20.5581   45.2138 H   0  0
   -6.4078  -22.0779   44.3471 H   0  0
   -5.1918  -20.7751   44.0160 H   0  0
   -7.1182  -31.7031   54.9549 H   0  0
   -5.3890  -31.8143   54.0117 H   0  0
   -6.4451  -31.3061   52.0161 H   0  0
   -8.1742  -31.1932   52.9597 H   0  0
   -6.3817  -28.4776   55.8572 H   0  0
  1  2  1  0
  2  3  2  0
  2  4  1  0
  3  5  1  0
  3  6  1  0
  4  7  2  0
  5  8  2  0
  6  9  1  0
  6 10  1  0
  6 11  1  0
  7  8  1  0
  9 12  2  0
  9 13  1  0
 10 14  1  0
 11 15  1  0
 13 16  1  0
 14 17  1  0
 15 17  1  0
 16 18  2  0
 16 19  1  0
 17 20  1  0
 18 21  1  0
 18 22  1  0
 19 23  2  0
 20 24  2  0
 20 25  1  0
 21 26  1  0
 22 27  2  0
 23 27  1  0
 24 28  1  0
 25 29  2  0
 27 30  1  0
 28 31  2  0
 29 31  1  0
 31 32  1  0
 32 33  1  0
 32 34  1  0
 32 35  1  0
 33 36  2  0
 33 37  1  0
 34 35  1  0
  4 38  1  0
  5 39  1  0
  7 40  1  0
  8 41  1  0
 10 42  1  0
 10 43  1  0
 11 44  1  0
 11 45  1  0
 13 46  1  0
 14 47  1  0
 14 48  1  0
 15 49  1  0
 15 50  1  0
 19 51  1  0
 22 52  1  0
 23 53  1  0
 24 54  1  0
 25 55  1  0
 26 56  1  0
 26 57  1  0
 26 58  1  0
 28 59  1  0
 29 60  1  0
 30 61  1  0
 30 62  1  0
 30 63  1  0
 34 64  1  0
 34 65  1  0
 35 66  1  0
 35 67  1  0
 37 68  1  0
M  END
> <Name>
11

> <AbsoluteEnergy>
72.923

> <Clean Energy>
121.047

> <Column 1>
11

> <ConfNumber>
49

> <Filter_Pass>
Failed

> <IC50_nM>
65.29

> <LogP>
5.95

> <MOL_NUMBER>
8

> <QSAR_Score_pIC50>
7.185

> <RelativeEnergy>
9.64894

> <SMILES>
COc1cc(C)ccc1NC(=O)C1(c2ccccc2Cl)CCN(c2ccc(C3(C(=O)O)CC3)cc2)CC1

> <Toxicity_Alerts>
DILI, Basic N (hERG Warning)

> <Type>
Analog

> <POSE_NUMBER>
12

> <LibDockScore>
110.6721

> <HotSpots>
2.67,-23.92,48.98,A,32,7
-6.53,-23.32,50.38,A,45,26
-7.53,-20.72,45.38,A,13,30

$$$$
11
  SciTegic05082609073D

 68 72  0  0  0  0            999 V2000
   -8.9591  -32.2808   56.6883 Cl  0  0  0  1  0  0
  -10.1401  -31.7530   55.5512 C   0  0  0  1  0  0
  -10.1324  -30.4659   54.9376 C   0  0  0  1  0  0
  -11.1623  -32.6799   55.2565 C   0  0  0  1  0  0
  -11.2173  -30.1473   54.0818 C   0  0  0  1  0  0
   -9.0034  -29.4549   55.1904 C   0  0  0  1  0  0
  -12.1902  -32.3506   54.3636 C   0  0  0  1  0  0
  -12.2215  -31.0782   53.7854 C   0  0  0  1  0  0
   -9.0733  -28.8549   56.6023 C   0  0  0  1  0  0
   -9.0600  -28.1849   54.2668 C   0  0  0  1  0  0
   -7.6013  -30.1284   54.9616 C   0  0  0  1  0  0
   -8.2138  -28.0691   56.9428 O   0  0  0  1  0  0
  -10.1098  -29.2002   57.4642 N   0  0  0  1  0  0
   -8.5624  -28.3645   52.8129 C   0  0  0  1  0  0
   -7.1796  -30.2988   53.4873 C   0  0  0  1  0  0
  -10.4304  -28.5602   58.6578 C   0  0  0  1  0  0
   -7.2090  -28.9640   52.8383 N   0  0  0  1  0  0
  -10.3607  -27.1460   58.8027 C   0  0  0  1  0  0
  -10.8644  -29.3531   59.7504 C   0  0  0  1  0  0
   -6.0648  -28.3061   52.3971 C   0  0  0  1  0  0
  -10.0315  -26.3973   57.7469 O   0  0  0  1  0  0
  -10.6648  -26.5771   60.0657 C   0  0  0  1  0  0
  -11.1648  -28.7692   60.9896 C   0  0  0  1  0  0
   -6.1221  -26.9500   51.9980 C   0  0  0  1  0  0
   -4.8150  -28.9624   52.3582 C   0  0  0  1  0  0
  -10.1200  -24.9681   57.7474 C   0  0  0  1  0  0
  -11.0469  -27.3799   61.1592 C   0  0  0  1  0  0
   -4.9506  -26.2573   51.6373 C   0  0  0  1  0  0
   -3.6474  -28.2757   51.9903 C   0  0  0  1  0  0
  -11.3262  -26.7738   62.4968 C   0  0  0  1  0  0
   -3.7035  -26.9132   51.6565 C   0  0  0  1  0  0
   -2.4231  -26.1768   51.3293 C   0  0  0  1  0  0
   -1.7211  -25.5713   52.5342 C   0  0  0  1  0  0
   -2.3585  -25.4619   49.9908 C   0  0  0  1  0  0
   -1.4762  -26.6622   50.2482 C   0  0  0  1  0  0
   -1.5859  -26.2294   53.5502 O   0  0  0  1  0  0
   -1.2612  -24.3177   52.4230 O   0  0  0  1  0  0
  -11.1520  -33.6623   55.7285 H   0  0
  -11.2714  -29.1511   53.6427 H   0  0
  -12.9610  -33.0821   54.1211 H   0  0
  -13.0282  -30.8100   53.1031 H   0  0
  -10.0891  -27.8269   54.2354 H   0  0
   -8.4760  -27.3916   54.7335 H   0  0
   -7.6038  -31.1096   55.4363 H   0  0
   -6.8428  -29.5352   55.4723 H   0  0
  -10.7167  -30.0354   57.1832 H   0  0
   -8.5214  -27.3942   52.3180 H   0  0
   -9.2426  -29.0237   52.2735 H   0  0
   -6.1699  -30.7066   53.4400 H   0  0
   -7.8761  -30.9671   52.9811 H   0  0
  -10.9659  -30.4311   59.6254 H   0  0
  -10.6017  -25.4964   60.1933 H   0  0
  -11.4899  -29.3939   61.8216 H   0  0
   -7.0830  -26.4362   51.9695 H   0  0
   -4.7561  -30.0193   52.6181 H   0  0
   -9.5135  -24.6692   58.6023 H   0  0
  -11.1574  -24.7708   58.0177 H   0  0
   -9.8198  -24.4827   56.8188 H   0  0
   -5.0085  -25.2096   51.3421 H   0  0
   -2.6934  -28.8023   51.9637 H   0  0
  -12.0988  -26.0292   62.3049 H   0  0
  -10.4160  -26.2285   62.7466 H   0  0
  -11.6130  -27.4912   63.2657 H   0  0
   -1.7985  -24.5294   50.0612 H   0  0
   -3.2097  -25.7170   49.3595 H   0  0
   -1.8576  -27.5546   49.7520 H   0  0
   -0.4474  -26.3674   50.4550 H   0  0
   -2.0927  -23.7321   52.1620 H   0  0
  1  2  1  0
  2  3  2  0
  2  4  1  0
  3  5  1  0
  3  6  1  0
  4  7  2  0
  5  8  2  0
  6  9  1  0
  6 10  1  0
  6 11  1  0
  7  8  1  0
  9 12  2  0
  9 13  1  0
 10 14  1  0
 11 15  1  0
 13 16  1  0
 14 17  1  0
 15 17  1  0
 16 18  2  0
 16 19  1  0
 17 20  1  0
 18 21  1  0
 18 22  1  0
 19 23  2  0
 20 24  2  0
 20 25  1  0
 21 26  1  0
 22 27  2  0
 23 27  1  0
 24 28  1  0
 25 29  2  0
 27 30  1  0
 28 31  2  0
 29 31  1  0
 31 32  1  0
 32 33  1  0
 32 34  1  0
 32 35  1  0
 33 36  2  0
 33 37  1  0
 34 35  1  0
  4 38  1  0
  5 39  1  0
  7 40  1  0
  8 41  1  0
 10 42  1  0
 10 43  1  0
 11 44  1  0
 11 45  1  0
 13 46  1  0
 14 47  1  0
 14 48  1  0
 15 49  1  0
 15 50  1  0
 19 51  1  0
 22 52  1  0
 23 53  1  0
 24 54  1  0
 25 55  1  0
 26 56  1  0
 26 57  1  0
 26 58  1  0
 28 59  1  0
 29 60  1  0
 30 61  1  0
 30 62  1  0
 30 63  1  0
 34 64  1  0
 34 65  1  0
 35 66  1  0
 35 67  1  0
 37 68  1  0
M  END
> <Name>
11

> <AbsoluteEnergy>
69.2686

> <Clean Energy>
121.047

> <Column 1>
11

> <ConfNumber>
22

> <Filter_Pass>
Failed

> <IC50_nM>
65.29

> <LogP>
5.95

> <MOL_NUMBER>
8

> <QSAR_Score_pIC50>
7.185

> <RelativeEnergy>
5.99453

> <SMILES>
COc1cc(C)ccc1NC(=O)C1(c2ccccc2Cl)CCN(c2ccc(C3(C(=O)O)CC3)cc2)CC1

> <Toxicity_Alerts>
DILI, Basic N (hERG Warning)

> <Type>
Analog

> <POSE_NUMBER>
13

> <LibDockScore>
106.9783

> <HotSpots>
-11.53,-32.52,54.78,A,71,7
-7.73,-27.92,56.98,P,70,12
-6.33,-26.32,51.98,A,57,24

$$$$
11
  SciTegic05082609073D

 68 72  0  0  0  0            999 V2000
   -3.3280  -23.1483   51.4145 Cl  0  0  0  1  0  0
   -2.3670  -24.4958   51.9057 C   0  0  0  1  0  0
   -2.8301  -25.8499   51.8973 C   0  0  0  1  0  0
   -1.0571  -24.1952   52.3311 C   0  0  0  1  0  0
   -1.9252  -26.8536   52.3208 C   0  0  0  1  0  0
   -4.2526  -26.2312   51.4597 C   0  0  0  1  0  0
   -0.1968  -25.2105   52.7679 C   0  0  0  1  0  0
   -0.6345  -26.5387   52.7662 C   0  0  0  1  0  0
   -4.7709  -25.3979   50.2726 C   0  0  0  1  0  0
   -5.2065  -26.0230   52.6871 C   0  0  0  1  0  0
   -4.4127  -27.7197   50.9623 C   0  0  0  1  0  0
   -5.9345  -25.0648   50.3049 O   0  0  0  1  0  0
   -3.9597  -25.0421   49.1983 N   0  0  0  1  0  0
   -5.0825  -27.1226   53.7446 C   0  0  0  1  0  0
   -4.5453  -28.8347   52.0384 C   0  0  0  1  0  0
   -4.2855  -24.1617   48.1663 C   0  0  0  1  0  0
   -5.4684  -28.4060   53.1157 N   0  0  0  1  0  0
   -5.0251  -22.9630   48.3760 C   0  0  0  1  0  0
   -3.8383  -24.4735   46.8620 C   0  0  0  1  0  0
   -6.6216  -29.0997   53.4687 C   0  0  0  1  0  0
   -5.3613  -22.6076   49.6143 O   0  0  0  1  0  0
   -5.3657  -22.1626   47.2607 C   0  0  0  1  0  0
   -4.1516  -23.6457   45.7740 C   0  0  0  1  0  0
   -6.8428  -30.4324   53.0476 C   0  0  0  1  0  0
   -7.6064  -28.4685   54.2609 C   0  0  0  1  0  0
   -6.2096  -21.4911   49.9004 C   0  0  0  1  0  0
   -4.9308  -22.4949   45.9658 C   0  0  0  1  0  0
   -8.0163  -31.1114   53.4173 C   0  0  0  1  0  0
   -8.7759  -29.1504   54.6328 C   0  0  0  1  0  0
   -5.2873  -21.6348   44.7975 C   0  0  0  1  0  0
   -8.9844  -30.4759   54.2164 C   0  0  0  1  0  0
  -10.2382  -31.2192   54.6247 C   0  0  0  1  0  0
  -10.1442  -31.8880   55.9992 C   0  0  0  1  0  0
  -11.0258  -31.9290   53.5351 C   0  0  0  1  0  0
  -11.5904  -30.6830   54.1746 C   0  0  0  1  0  0
  -11.1110  -32.4673   56.4417 O   0  0  0  1  0  0
   -9.0017  -31.8253   56.6867 O   0  0  0  1  0  0
   -0.7102  -23.1619   52.3200 H   0  0
   -2.2405  -27.8968   52.2998 H   0  0
    0.8097  -24.9664   53.1077 H   0  0
    0.0298  -27.3307   53.1121 H   0  0
   -4.9828  -25.0620   53.1502 H   0  0
   -6.2371  -25.9888   52.3339 H   0  0
   -3.5606  -27.9615   50.3270 H   0  0
   -5.2863  -27.7700   50.3124 H   0  0
   -2.9883  -25.4891   49.1604 H   0  0
   -5.7504  -26.9077   54.5788 H   0  0
   -4.0517  -27.1808   54.0942 H   0  0
   -4.9311  -29.7418   51.5732 H   0  0
   -3.5648  -29.0436   52.4664 H   0  0
   -3.2410  -25.3707   46.6994 H   0  0
   -5.9765  -21.2719   47.4079 H   0  0
   -3.7889  -23.8970   44.7773 H   0  0
   -6.0975  -30.9360   52.4320 H   0  0
   -7.4564  -27.4394   54.5874 H   0  0
   -7.1143  -21.6968   49.3283 H   0  0
   -5.7142  -20.6537   49.4091 H   0  0
   -6.4033  -21.3130   50.9582 H   0  0
   -8.1775  -32.1363   53.0831 H   0  0
   -9.5246  -28.6498   55.2467 H   0  0
   -4.9190  -20.6434   45.0613 H   0  0
   -6.3760  -21.5841   44.8134 H   0  0
   -4.8963  -21.9889   43.8437 H   0  0
  -11.5098  -32.8296   53.9130 H   0  0
  -10.6153  -31.7231   52.5466 H   0  0
  -11.4801  -29.8132   53.5270 H   0  0
  -12.3735  -30.9198   54.8948 H   0  0
   -8.7959  -30.7992   56.7716 H   0  0
  1  2  1  0
  2  3  2  0
  2  4  1  0
  3  5  1  0
  3  6  1  0
  4  7  2  0
  5  8  2  0
  6  9  1  0
  6 10  1  0
  6 11  1  0
  7  8  1  0
  9 12  2  0
  9 13  1  0
 10 14  1  0
 11 15  1  0
 13 16  1  0
 14 17  1  0
 15 17  1  0
 16 18  2  0
 16 19  1  0
 17 20  1  0
 18 21  1  0
 18 22  1  0
 19 23  2  0
 20 24  2  0
 20 25  1  0
 21 26  1  0
 22 27  2  0
 23 27  1  0
 24 28  1  0
 25 29  2  0
 27 30  1  0
 28 31  2  0
 29 31  1  0
 31 32  1  0
 32 33  1  0
 32 34  1  0
 32 35  1  0
 33 36  2  0
 33 37  1  0
 34 35  1  0
  4 38  1  0
  5 39  1  0
  7 40  1  0
  8 41  1  0
 10 42  1  0
 10 43  1  0
 11 44  1  0
 11 45  1  0
 13 46  1  0
 14 47  1  0
 14 48  1  0
 15 49  1  0
 15 50  1  0
 19 51  1  0
 22 52  1  0
 23 53  1  0
 24 54  1  0
 25 55  1  0
 26 56  1  0
 26 57  1  0
 26 58  1  0
 28 59  1  0
 29 60  1  0
 30 61  1  0
 30 62  1  0
 30 63  1  0
 34 64  1  0
 34 65  1  0
 35 66  1  0
 35 67  1  0
 37 68  1  0
M  END
> <Name>
11

> <AbsoluteEnergy>
71.0276

> <Clean Energy>
121.047

> <Column 1>
11

> <ConfNumber>
36

> <Filter_Pass>
Failed

> <IC50_nM>
65.29

> <LogP>
5.95

> <MOL_NUMBER>
8

> <QSAR_Score_pIC50>
7.185

> <RelativeEnergy>
7.7536

> <SMILES>
COc1cc(C)ccc1NC(=O)C1(c2ccccc2Cl)CCN(c2ccc(C3(C(=O)O)CC3)cc2)CC1

> <Toxicity_Alerts>
DILI, Basic N (hERG Warning)

> <Type>
Analog

> <POSE_NUMBER>
14

> <LibDockScore>
104.5219

> <HotSpots>
-6.13,-22.12,49.98,A,41,26
-4.93,-21.52,45.19,A,11,30
-10.93,-30.92,53.98,A,68,35

$$$$
11
  SciTegic05082609073D

 68 72  0  0  0  0            999 V2000
   -3.2087  -24.7551   47.2683 Cl  0  0  0  1  0  0
   -4.3316  -24.0117   48.3397 C   0  0  0  1  0  0
   -4.2146  -24.0067   49.7668 C   0  0  0  1  0  0
   -5.4175  -23.3709   47.7107 C   0  0  0  1  0  0
   -5.1727  -23.2480   50.4871 C   0  0  0  1  0  0
   -3.1183  -24.7717   50.5258 C   0  0  0  1  0  0
   -6.3728  -22.6764   48.4611 C   0  0  0  1  0  0
   -6.2426  -22.6048   49.8501 C   0  0  0  1  0  0
   -1.7573  -24.1061   50.2890 C   0  0  0  1  0  0
   -3.1323  -26.2947   50.1606 C   0  0  0  1  0  0
   -3.2767  -24.7370   52.0952 C   0  0  0  1  0  0
   -1.6033  -22.9607   50.6578 O   0  0  0  1  0  0
   -0.7122  -24.7840   49.6804 N   0  0  0  1  0  0
   -4.3722  -27.0334   50.6677 C   0  0  0  1  0  0
   -4.4395  -25.5666   52.6984 C   0  0  0  1  0  0
    0.6220  -24.4307   49.7828 C   0  0  0  1  0  0
   -4.4292  -26.9356   52.1439 N   0  0  0  1  0  0
    1.1989  -24.0451   51.0202 C   0  0  0  1  0  0
    1.4165  -24.4751   48.6201 C   0  0  0  1  0  0
   -4.4266  -28.0610   52.9419 C   0  0  0  1  0  0
    0.4404  -24.0765   52.1150 O   0  0  0  1  0  0
    2.5603  -23.6588   51.0470 C   0  0  0  1  0  0
    2.7659  -24.0999   48.6671 C   0  0  0  1  0  0
   -3.2237  -28.7719   53.1217 C   0  0  0  1  0  0
   -5.6045  -28.5139   53.5729 C   0  0  0  1  0  0
    0.8866  -23.5767   53.3788 C   0  0  0  1  0  0
    3.3420  -23.6768   49.8766 C   0  0  0  1  0  0
   -3.2084  -29.9608   53.8652 C   0  0  0  1  0  0
   -5.5877  -29.7042   54.3191 C   0  0  0  1  0  0
    4.7731  -23.2473   49.9162 C   0  0  0  1  0  0
   -4.3981  -30.4448   54.4410 C   0  0  0  1  0  0
   -4.3971  -31.7700   55.1642 C   0  0  0  1  0  0
   -4.7064  -32.9370   54.2245 C   0  0  0  1  0  0
   -4.8795  -31.8189   56.6068 C   0  0  0  1  0  0
   -3.4109  -31.9903   56.2992 C   0  0  0  1  0  0
   -4.8256  -34.0543   54.6755 O   0  0  0  1  0  0
   -4.8380  -32.6895   52.9169 O   0  0  0  1  0  0
   -5.5146  -23.4168   46.6260 H   0  0
   -5.0737  -23.1627   51.5692 H   0  0
   -7.2144  -22.1937   47.9643 H   0  0
   -6.9728  -22.0489   50.4382 H   0  0
   -3.0796  -26.3987   49.0769 H   0  0
   -2.2448  -26.7680   50.5807 H   0  0
   -3.3988  -23.6997   52.4070 H   0  0
   -2.3437  -25.0792   52.5430 H   0  0
   -0.9546  -25.6421   49.0890 H   0  0
   -4.3174  -28.0820   50.3751 H   0  0
   -5.2663  -26.5809   50.2388 H   0  0
   -4.3258  -25.6150   53.7814 H   0  0
   -5.3890  -25.0877   52.4593 H   0  0
    0.9786  -24.8035   47.6775 H   0  0
    3.0101  -23.3426   51.9882 H   0  0
    3.3711  -24.1365   47.7613 H   0  0
   -2.3004  -28.3960   52.6808 H   0  0
   -6.5270  -27.9406   53.4815 H   0  0
    1.1709  -22.5456   53.1686 H   0  0
    1.8107  -24.1234   53.5667 H   0  0
    0.1661  -23.6637   54.1921 H   0  0
   -2.2760  -30.5097   53.9971 H   0  0
   -6.4985  -30.0545   54.8046 H   0  0
    5.2344  -23.8837   50.6714 H   0  0
    4.7496  -22.2360   50.3223 H   0  0
    5.2824  -23.3013   48.9540 H   0  0
   -5.3560  -32.7718   56.8371 H   0  0
   -5.0967  -30.8216   56.9893 H   0  0
   -2.8456  -31.0849   56.5200 H   0  0
   -3.1051  -33.0344   56.3662 H   0  0
   -3.9394  -32.2276   52.6312 H   0  0
  1  2  1  0
  2  3  2  0
  2  4  1  0
  3  5  1  0
  3  6  1  0
  4  7  2  0
  5  8  2  0
  6  9  1  0
  6 10  1  0
  6 11  1  0
  7  8  1  0
  9 12  2  0
  9 13  1  0
 10 14  1  0
 11 15  1  0
 13 16  1  0
 14 17  1  0
 15 17  1  0
 16 18  2  0
 16 19  1  0
 17 20  1  0
 18 21  1  0
 18 22  1  0
 19 23  2  0
 20 24  2  0
 20 25  1  0
 21 26  1  0
 22 27  2  0
 23 27  1  0
 24 28  1  0
 25 29  2  0
 27 30  1  0
 28 31  2  0
 29 31  1  0
 31 32  1  0
 32 33  1  0
 32 34  1  0
 32 35  1  0
 33 36  2  0
 33 37  1  0
 34 35  1  0
  4 38  1  0
  5 39  1  0
  7 40  1  0
  8 41  1  0
 10 42  1  0
 10 43  1  0
 11 44  1  0
 11 45  1  0
 13 46  1  0
 14 47  1  0
 14 48  1  0
 15 49  1  0
 15 50  1  0
 19 51  1  0
 22 52  1  0
 23 53  1  0
 24 54  1  0
 25 55  1  0
 26 56  1  0
 26 57  1  0
 26 58  1  0
 28 59  1  0
 29 60  1  0
 30 61  1  0
 30 62  1  0
 30 63  1  0
 34 64  1  0
 34 65  1  0
 35 66  1  0
 35 67  1  0
 37 68  1  0
M  END
> <Name>
11

> <AbsoluteEnergy>
73.1256

> <Clean Energy>
121.047

> <Column 1>
11

> <ConfNumber>
54

> <Filter_Pass>
Failed

> <IC50_nM>
65.29

> <LogP>
5.95

> <MOL_NUMBER>
8

> <QSAR_Score_pIC50>
7.185

> <RelativeEnergy>
9.85156

> <SMILES>
COc1cc(C)ccc1NC(=O)C1(c2ccccc2Cl)CCN(c2ccc(C3(C(=O)O)CC3)cc2)CC1

> <Toxicity_Alerts>
DILI, Basic N (hERG Warning)

> <Type>
Analog

> <POSE_NUMBER>
15

> <LibDockScore>
101.8275

> <HotSpots>
-4.93,-23.52,47.59,A,26,4
4.67,-22.92,49.98,A,40,30
-4.33,-32.92,55.19,A,75,35

$$$$
11
  SciTegic05082609073D

 68 72  0  0  0  0            999 V2000
   -4.4707  -29.1709   50.9787 Cl  0  0  0  1  0  0
   -3.6630  -28.8805   52.4735 C   0  0  0  1  0  0
   -3.4982  -27.5780   53.0415 C   0  0  0  1  0  0
   -3.1567  -30.0172   53.1374 C   0  0  0  1  0  0
   -2.8172  -27.4821   54.2847 C   0  0  0  1  0  0
   -4.0314  -26.3153   52.3573 C   0  0  0  1  0  0
   -2.4877  -29.8892   54.3631 C   0  0  0  1  0  0
   -2.3186  -28.6218   54.9366 C   0  0  0  1  0  0
   -3.1467  -25.9115   51.1652 C   0  0  0  1  0  0
   -4.1020  -25.0468   53.2893 C   0  0  0  1  0  0
   -5.5218  -26.5439   51.8922 C   0  0  0  1  0  0
   -3.6476  -25.8619   50.0667 O   0  0  0  1  0  0
   -1.8172  -25.5621   51.3521 N   0  0  0  1  0  0
   -4.5590  -23.7547   52.5515 C   0  0  0  1  0  0
   -6.3555  -25.2446   51.7005 C   0  0  0  1  0  0
   -0.8213  -25.5500   50.3751 C   0  0  0  1  0  0
   -5.4540  -24.0983   51.4062 N   0  0  0  1  0  0
   -0.8006  -26.4023   49.2320 C   0  0  0  1  0  0
    0.2123  -24.6002   50.5408 C   0  0  0  1  0  0
   -5.3319  -23.5008   50.1501 C   0  0  0  1  0  0
   -1.6884  -27.3896   49.1278 O   0  0  0  1  0  0
    0.1780  -26.1818   48.2336 C   0  0  0  1  0  0
    1.1941  -24.4217   49.5579 C   0  0  0  1  0  0
   -5.8257  -24.1505   48.9932 C   0  0  0  1  0  0
   -4.6716  -22.2598   49.9919 C   0  0  0  1  0  0
   -2.0465  -27.9850   47.8772 C   0  0  0  1  0  0
    1.1658  -25.1942   48.3862 C   0  0  0  1  0  0
   -5.5904  -23.6211   47.7155 C   0  0  0  1  0  0
   -4.4194  -21.7404   48.7097 C   0  0  0  1  0  0
    2.1718  -24.9779   47.3039 C   0  0  0  1  0  0
   -4.8503  -22.4365   47.5671 C   0  0  0  1  0  0
   -4.5099  -21.9322   46.1855 C   0  0  0  1  0  0
   -5.7267  -21.5760   45.3386 C   0  0  0  1  0  0
   -3.2258  -21.1383   45.9909 C   0  0  0  1  0  0
   -3.3143  -22.5532   45.4760 C   0  0  0  1  0  0
   -6.3100  -22.4528   44.7441 O   0  0  0  1  0  0
   -6.1320  -20.3087   45.2534 O   0  0  0  1  0  0
   -3.2866  -31.0043   52.6936 H   0  0
   -2.6787  -26.5027   54.7425 H   0  0
   -2.1000  -30.7736   54.8687 H   0  0
   -1.7995  -28.5204   55.8897 H   0  0
   -3.1184  -24.8731   53.7258 H   0  0
   -4.7936  -25.2480   54.1074 H   0  0
   -6.0247  -27.1749   52.6250 H   0  0
   -5.5138  -27.0943   50.9514 H   0  0
   -1.5276  -25.2741   52.3411 H   0  0
   -3.6844  -23.2222   52.1779 H   0  0
   -5.0964  -23.1115   53.2484 H   0  0
   -7.0507  -25.3794   50.8719 H   0  0
   -6.9184  -25.0368   52.6105 H   0  0
    0.2459  -23.9970   51.4480 H   0  0
    0.1652  -26.7897   47.3290 H   0  0
    1.9813  -23.6818   49.7031 H   0  0
   -6.3959  -25.0737   49.0965 H   0  0
   -4.3552  -21.7007   50.8725 H   0  0
   -1.0939  -28.3140   47.4620 H   0  0
   -2.3757  -27.1412   47.2707 H   0  0
   -2.7860  -28.7835   47.9369 H   0  0
   -5.9830  -24.1305   46.8354 H   0  0
   -3.8880  -20.7949   48.6015 H   0  0
    1.5855  -24.7706   46.4087 H   0  0
    2.6469  -25.9483   47.1599 H   0  0
    2.8924  -24.1896   47.5217 H   0  0
   -2.6476  -21.0809   46.9131 H   0  0
   -3.3249  -20.4099   45.1861 H   0  0
   -3.4601  -22.5803   44.3961 H   0  0
   -2.7843  -23.2515   46.1238 H   0  0
   -5.2898  -19.7835   44.9108 H   0  0
  1  2  1  0
  2  3  2  0
  2  4  1  0
  3  5  1  0
  3  6  1  0
  4  7  2  0
  5  8  2  0
  6  9  1  0
  6 10  1  0
  6 11  1  0
  7  8  1  0
  9 12  2  0
  9 13  1  0
 10 14  1  0
 11 15  1  0
 13 16  1  0
 14 17  1  0
 15 17  1  0
 16 18  2  0
 16 19  1  0
 17 20  1  0
 18 21  1  0
 18 22  1  0
 19 23  2  0
 20 24  2  0
 20 25  1  0
 21 26  1  0
 22 27  2  0
 23 27  1  0
 24 28  1  0
 25 29  2  0
 27 30  1  0
 28 31  2  0
 29 31  1  0
 31 32  1  0
 32 33  1  0
 32 34  1  0
 32 35  1  0
 33 36  2  0
 33 37  1  0
 34 35  1  0
  4 38  1  0
  5 39  1  0
  7 40  1  0
  8 41  1  0
 10 42  1  0
 10 43  1  0
 11 44  1  0
 11 45  1  0
 13 46  1  0
 14 47  1  0
 14 48  1  0
 15 49  1  0
 15 50  1  0
 19 51  1  0
 22 52  1  0
 23 53  1  0
 24 54  1  0
 25 55  1  0
 26 56  1  0
 26 57  1  0
 26 58  1  0
 28 59  1  0
 29 60  1  0
 30 61  1  0
 30 62  1  0
 30 63  1  0
 34 64  1  0
 34 65  1  0
 35 66  1  0
 35 67  1  0
 37 68  1  0
M  END
> <Name>
11

> <AbsoluteEnergy>
69.0096

> <Clean Energy>
121.047

> <Column 1>
11

> <ConfNumber>
21

> <Filter_Pass>
Failed

> <IC50_nM>
65.29

> <LogP>
5.95

> <MOL_NUMBER>
8

> <QSAR_Score_pIC50>
7.185

> <RelativeEnergy>
5.73558

> <SMILES>
COc1cc(C)ccc1NC(=O)C1(c2ccccc2Cl)CCN(c2ccc(C3(C(=O)O)CC3)cc2)CC1

> <Toxicity_Alerts>
DILI, Basic N (hERG Warning)

> <Type>
Analog

> <POSE_NUMBER>
16

> <LibDockScore>
99.3331

> <HotSpots>
-4.73,-22.32,50.38,A,46,25
1.27,-23.52,47.59,A,27,30
-6.33,-21.12,45.38,P,21,36

$$$$
11
  SciTegic05082609073D

 68 72  0  0  0  0            999 V2000
   -0.2347  -24.9430   48.8898 Cl  0  0  0  1  0  0
    0.7650  -24.9189   50.2956 C   0  0  0  1  0  0
    0.3869  -25.4903   51.5537 C   0  0  0  1  0  0
    2.0227  -24.3040   50.1401 C   0  0  0  1  0  0
    1.3630  -25.4921   52.5829 C   0  0  0  1  0  0
   -1.0038  -26.1125   51.7901 C   0  0  0  1  0  0
    2.9425  -24.2810   51.1942 C   0  0  0  1  0  0
    2.6160  -24.8852   52.4123 C   0  0  0  1  0  0
   -2.1286  -25.1031   51.4644 C   0  0  0  1  0  0
   -1.3132  -26.4772   53.3040 C   0  0  0  1  0  0
   -1.0036  -27.4283   50.9186 C   0  0  0  1  0  0
   -1.8995  -23.9141   51.5159 O   0  0  0  1  0  0
   -3.4005  -25.5475   51.1467 N   0  0  0  1  0  0
   -1.4919  -27.9780   53.5808 C   0  0  0  1  0  0
   -2.0465  -28.5324   51.2214 C   0  0  0  1  0  0
   -4.5258  -24.7791   50.8783 C   0  0  0  1  0  0
   -2.5160  -28.5046   52.6380 N   0  0  0  1  0  0
   -4.5356  -23.6896   49.9678 C   0  0  0  1  0  0
   -5.7143  -25.1291   51.5572 C   0  0  0  1  0  0
   -3.8121  -28.8653   53.0303 C   0  0  0  1  0  0
   -3.4267  -23.3986   49.2885 O   0  0  0  1  0  0
   -5.7362  -22.9571   49.7964 C   0  0  0  1  0  0
   -6.8947  -24.4009   51.3680 C   0  0  0  1  0  0
   -4.0970  -29.3049   54.3470 C   0  0  0  1  0  0
   -4.8932  -28.7825   52.1177 C   0  0  0  1  0  0
   -3.3547  -22.3233   48.3471 C   0  0  0  1  0  0
   -6.9100  -23.3069   50.4894 C   0  0  0  1  0  0
   -5.4170  -29.5819   54.7490 C   0  0  0  1  0  0
   -6.2054  -29.0635   52.5165 C   0  0  0  1  0  0
   -8.1603  -22.5158   50.2855 C   0  0  0  1  0  0
   -6.4787  -29.4435   53.8384 C   0  0  0  1  0  0
   -7.9113  -29.6844   54.2586 C   0  0  0  1  0  0
   -8.6500  -28.3854   54.5943 C   0  0  0  1  0  0
   -8.7048  -30.7487   53.5141 C   0  0  0  1  0  0
   -8.2740  -31.0012   54.9367 C   0  0  0  1  0  0
   -8.6357  -27.4854   53.7833 O   0  0  0  1  0  0
   -9.2952  -28.2485   55.7550 O   0  0  0  1  0  0
    2.2823  -23.8410   49.1881 H   0  0
    1.1333  -25.9779   53.5313 H   0  0
    3.9094  -23.7942   51.0664 H   0  0
    3.3363  -24.8845   53.2304 H   0  0
   -0.5015  -26.1025   53.9276 H   0  0
   -2.2195  -25.9563   53.6128 H   0  0
   -1.1147  -27.1405   49.8732 H   0  0
   -0.0125  -27.8773   50.9841 H   0  0
   -3.5322  -26.6084   51.1027 H   0  0
   -1.8291  -28.1248   54.6069 H   0  0
   -0.5460  -28.4954   53.4204 H   0  0
   -2.9042  -28.4025   50.5614 H   0  0
   -1.6048  -29.5071   51.0140 H   0  0
   -5.7121  -25.9795   52.2390 H   0  0
   -5.7510  -22.1066   49.1149 H   0  0
   -7.8014  -24.6835   51.9028 H   0  0
   -3.2815  -29.4304   55.0592 H   0  0
   -4.6991  -28.4942   51.0846 H   0  0
   -3.6630  -21.4499   48.9218 H   0  0
   -4.1607  -22.5349   47.6445 H   0  0
   -2.3872  -22.1956   47.8616 H   0  0
   -5.6168  -29.9051   55.7706 H   0  0
   -7.0192  -28.9865   51.7955 H   0  0
   -8.3465  -22.5537   49.2122 H   0  0
   -7.8872  -21.4887   50.5277 H   0  0
   -9.0096  -22.8707   50.8693 H   0  0
   -8.0801  -31.2883   52.8023 H   0  0
   -9.7617  -30.4891   53.4532 H   0  0
   -9.1004  -30.8756   55.6363 H   0  0
   -7.4175  -31.6737   54.9852 H   0  0
   -8.5641  -28.4450   56.4826 H   0  0
  1  2  1  0
  2  3  2  0
  2  4  1  0
  3  5  1  0
  3  6  1  0
  4  7  2  0
  5  8  2  0
  6  9  1  0
  6 10  1  0
  6 11  1  0
  7  8  1  0
  9 12  2  0
  9 13  1  0
 10 14  1  0
 11 15  1  0
 13 16  1  0
 14 17  1  0
 15 17  1  0
 16 18  2  0
 16 19  1  0
 17 20  1  0
 18 21  1  0
 18 22  1  0
 19 23  2  0
 20 24  2  0
 20 25  1  0
 21 26  1  0
 22 27  2  0
 23 27  1  0
 24 28  1  0
 25 29  2  0
 27 30  1  0
 28 31  2  0
 29 31  1  0
 31 32  1  0
 32 33  1  0
 32 34  1  0
 32 35  1  0
 33 36  2  0
 33 37  1  0
 34 35  1  0
  4 38  1  0
  5 39  1  0
  7 40  1  0
  8 41  1  0
 10 42  1  0
 10 43  1  0
 11 44  1  0
 11 45  1  0
 13 46  1  0
 14 47  1  0
 14 48  1  0
 15 49  1  0
 15 50  1  0
 19 51  1  0
 22 52  1  0
 23 53  1  0
 24 54  1  0
 25 55  1  0
 26 56  1  0
 26 57  1  0
 26 58  1  0
 28 59  1  0
 29 60  1  0
 30 61  1  0
 30 62  1  0
 30 63  1  0
 34 64  1  0
 34 65  1  0
 35 66  1  0
 35 67  1  0
 37 68  1  0
M  END
> <Name>
11

> <AbsoluteEnergy>
78.3549

> <Clean Energy>
121.047

> <Column 1>
11

> <ConfNumber>
87

> <Filter_Pass>
Failed

> <IC50_nM>
65.29

> <LogP>
5.95

> <MOL_NUMBER>
8

> <QSAR_Score_pIC50>
7.185

> <RelativeEnergy>
15.0808

> <SMILES>
COc1cc(C)ccc1NC(=O)C1(c2ccccc2Cl)CCN(c2ccc(C3(C(=O)O)CC3)cc2)CC1

> <Toxicity_Alerts>
DILI, Basic N (hERG Warning)

> <Type>
Analog

> <POSE_NUMBER>
17

> <LibDockScore>
92.2919

> <HotSpots>
-5.53,-22.92,48.98,A,33,22
-7.33,-24.12,50.38,A,44,23
-9.53,-30.12,52.78,A,62,34

$$$$
11
  SciTegic05082609073D

 68 72  0  0  0  0            999 V2000
   -9.4960  -29.5326   51.2349 Cl  0  0  0  1  0  0
   -9.4306  -30.0081   52.8879 C   0  0  0  1  0  0
   -8.2525  -29.9163   53.6953 C   0  0  0  1  0  0
  -10.6306  -30.5160   53.4255 C   0  0  0  1  0  0
   -8.3545  -30.3688   55.0404 C   0  0  0  1  0  0
   -6.9183  -29.3706   53.1550 C   0  0  0  1  0  0
  -10.6946  -30.9513   54.7545 C   0  0  0  1  0  0
   -9.5566  -30.8781   55.5621 C   0  0  0  1  0  0
   -7.0097  -27.8593   52.8712 C   0  0  0  1  0  0
   -6.4516  -30.2507   51.9438 C   0  0  0  1  0  0
   -5.7329  -29.4905   54.1715 C   0  0  0  1  0  0
   -7.3523  -27.1195   53.7693 O   0  0  0  1  0  0
   -6.6906  -27.3333   51.6292 N   0  0  0  1  0  0
   -4.9497  -30.1689   51.5630 C   0  0  0  1  0  0
   -4.4008  -28.8748   53.6698 C   0  0  0  1  0  0
   -6.4074  -26.0084   51.3666 C   0  0  0  1  0  0
   -4.2221  -29.0313   52.1985 N   0  0  0  1  0  0
   -5.2745  -25.3772   51.9390 C   0  0  0  1  0  0
   -7.2466  -25.2949   50.4863 C   0  0  0  1  0  0
   -3.4339  -28.1478   51.4661 C   0  0  0  1  0  0
   -4.5130  -26.0564   52.7955 O   0  0  0  1  0  0
   -4.9734  -24.0503   51.5620 C   0  0  0  1  0  0
   -6.9512  -23.9650   50.1516 C   0  0  0  1  0  0
   -3.7919  -27.7916   50.1463 C   0  0  0  1  0  0
   -2.2687  -27.5742   52.0255 C   0  0  0  1  0  0
   -3.3870  -25.4677   53.4562 C   0  0  0  1  0  0
   -5.8083  -23.3395   50.6794 C   0  0  0  1  0  0
   -2.9847  -26.9226   49.3919 C   0  0  0  1  0  0
   -1.4610  -26.7065   51.2682 C   0  0  0  1  0  0
   -5.4883  -21.9327   50.2993 C   0  0  0  1  0  0
   -1.8034  -26.3877   49.9403 C   0  0  0  1  0  0
   -0.9052  -25.4835   49.1130 C   0  0  0  1  0  0
   -1.0693  -23.9864   49.3852 C   0  0  0  1  0  0
   -0.5705  -25.8920   47.6857 C   0  0  0  1  0  0
    0.4824  -26.0027   48.7612 C   0  0  0  1  0  0
   -2.1416  -23.5725   49.7688 O   0  0  0  1  0  0
   -0.0231  -23.1701   49.1834 O   0  0  0  1  0  0
  -11.5203  -30.5705   52.7982 H   0  0
   -7.4763  -30.3192   55.6842 H   0  0
  -11.6276  -31.3454   55.1574 H   0  0
   -9.6009  -31.2161   56.5974 H   0  0
   -6.6944  -31.2910   52.1602 H   0  0
   -7.0423  -29.9765   51.0697 H   0  0
   -6.0171  -28.9995   55.1022 H   0  0
   -5.5682  -30.5439   54.3980 H   0  0
   -6.6613  -28.0128   50.8031 H   0  0
   -4.8644  -30.0772   50.4802 H   0  0
   -4.4622  -31.1003   51.8508 H   0  0
   -4.3825  -27.8137   53.9185 H   0  0
   -3.5685  -29.3582   54.1814 H   0  0
   -8.1278  -25.7783   50.0645 H   0  0
   -4.0805  -23.5688   51.9607 H   0  0
   -7.6102  -23.4148   49.4800 H   0  0
   -4.7046  -28.1954   49.7082 H   0  0
   -1.9935  -27.8068   53.0542 H   0  0
   -3.8015  -24.5940   53.9592 H   0  0
   -2.7663  -25.0951   52.6413 H   0  0
   -2.8489  -26.1327   54.1318 H   0  0
   -3.2755  -26.6608   48.3745 H   0  0
   -0.5630  -26.2776   51.7129 H   0  0
   -4.4799  -21.9790   49.8880 H   0  0
   -5.4213  -21.3978   51.2467 H   0  0
   -6.2026  -21.4809   49.6110 H   0  0
   -0.4056  -25.0227   47.0491 H   0  0
   -0.9969  -26.8641   47.4382 H   0  0
    0.6179  -27.0340   49.0872 H   0  0
    1.2081  -25.1918   48.6992 H   0  0
    0.2552  -23.3244   48.1828 H   0  0
  1  2  1  0
  2  3  2  0
  2  4  1  0
  3  5  1  0
  3  6  1  0
  4  7  2  0
  5  8  2  0
  6  9  1  0
  6 10  1  0
  6 11  1  0
  7  8  1  0
  9 12  2  0
  9 13  1  0
 10 14  1  0
 11 15  1  0
 13 16  1  0
 14 17  1  0
 15 17  1  0
 16 18  2  0
 16 19  1  0
 17 20  1  0
 18 21  1  0
 18 22  1  0
 19 23  2  0
 20 24  2  0
 20 25  1  0
 21 26  1  0
 22 27  2  0
 23 27  1  0
 24 28  1  0
 25 29  2  0
 27 30  1  0
 28 31  2  0
 29 31  1  0
 31 32  1  0
 32 33  1  0
 32 34  1  0
 32 35  1  0
 33 36  2  0
 33 37  1  0
 34 35  1  0
  4 38  1  0
  5 39  1  0
  7 40  1  0
  8 41  1  0
 10 42  1  0
 10 43  1  0
 11 44  1  0
 11 45  1  0
 13 46  1  0
 14 47  1  0
 14 48  1  0
 15 49  1  0
 15 50  1  0
 19 51  1  0
 22 52  1  0
 23 53  1  0
 24 54  1  0
 25 55  1  0
 26 56  1  0
 26 57  1  0
 26 58  1  0
 28 59  1  0
 29 60  1  0
 30 61  1  0
 30 62  1  0
 30 63  1  0
 34 64  1  0
 34 65  1  0
 35 66  1  0
 35 67  1  0
 37 68  1  0
M  END
> <Name>
11

> <AbsoluteEnergy>
72.2921

> <Clean Energy>
121.047

> <Column 1>
11

> <ConfNumber>
43

> <Filter_Pass>
Failed

> <IC50_nM>
65.29

> <LogP>
5.95

> <MOL_NUMBER>
8

> <QSAR_Score_pIC50>
7.185

> <RelativeEnergy>
9.01802

> <SMILES>
COc1cc(C)ccc1NC(=O)C1(c2ccccc2Cl)CCN(c2ccc(C3(C(=O)O)CC3)cc2)CC1

> <Toxicity_Alerts>
DILI, Basic N (hERG Warning)

> <Type>
Analog

> <POSE_NUMBER>
18

> <LibDockScore>
83.1275

> <HotSpots>
-10.93,-30.92,53.98,A,68,7
-6.53,-30.72,51.78,A,56,10
-6.13,-22.12,49.98,A,41,30

$$$$
11
  SciTegic05082609073D

 68 72  0  0  0  0            999 V2000
    0.8685  -24.9087   53.2588 Cl  0  0  0  1  0  0
    0.4852  -25.2268   51.6136 C   0  0  0  1  0  0
   -0.6031  -26.0343   51.1614 C   0  0  0  1  0  0
    1.3410  -24.6202   50.6700 C   0  0  0  1  0  0
   -0.7666  -26.1996   49.7623 C   0  0  0  1  0  0
   -1.6524  -26.7603   52.0118 C   0  0  0  1  0  0
    1.1470  -24.8011   49.2937 C   0  0  0  1  0  0
    0.0899  -25.5950   48.8388 C   0  0  0  1  0  0
   -2.9947  -26.0275   51.8161 C   0  0  0  1  0  0
   -1.4824  -26.8239   53.5685 C   0  0  0  1  0  0
   -1.6721  -28.2586   51.5135 C   0  0  0  1  0  0
   -4.0338  -26.6469   51.8949 O   0  0  0  1  0  0
   -2.9779  -24.6613   51.5371 N   0  0  0  1  0  0
   -2.6437  -27.5990   54.2657 C   0  0  0  1  0  0
   -1.9742  -29.3177   52.5907 C   0  0  0  1  0  0
   -4.0249  -23.8366   51.1289 C   0  0  0  1  0  0
   -3.0460  -28.7937   53.4619 N   0  0  0  1  0  0
   -3.7767  -22.8323   50.1474 C   0  0  0  1  0  0
   -5.3221  -23.9603   51.6746 C   0  0  0  1  0  0
   -4.3296  -29.3232   53.4002 C   0  0  0  1  0  0
   -2.5538  -22.7214   49.6275 O   0  0  0  1  0  0
   -4.8371  -21.9827   49.7475 C   0  0  0  1  0  0
   -6.3586  -23.1118   51.2605 C   0  0  0  1  0  0
   -4.5337  -30.6791   53.0470 C   0  0  0  1  0  0
   -5.4585  -28.5066   53.6333 C   0  0  0  1  0  0
   -2.2854  -21.9986   48.4185 C   0  0  0  1  0  0
   -6.1219  -22.1172   50.2978 C   0  0  0  1  0  0
   -5.8229  -31.1503   52.7555 C   0  0  0  1  0  0
   -6.7466  -28.9789   53.3398 C   0  0  0  1  0  0
   -7.2212  -21.2039   49.8608 C   0  0  0  1  0  0
   -6.9197  -30.2753   52.8262 C   0  0  0  1  0  0
   -8.2654  -30.7159   52.3091 C   0  0  0  1  0  0
   -8.1082  -31.8011   51.2425 C   0  0  0  1  0  0
   -9.3982  -29.7131   52.1712 C   0  0  0  1  0  0
   -9.4499  -30.7574   53.2625 C   0  0  0  1  0  0
   -8.8102  -32.7866   51.2886 O   0  0  0  1  0  0
   -7.1836  -31.6389   50.2854 O   0  0  0  1  0  0
    2.1674  -24.0001   51.0174 H   0  0
   -1.5862  -26.8178   49.3960 H   0  0
    1.8186  -24.3241   48.5799 H   0  0
   -0.0651  -25.7414   47.7699 H   0  0
   -1.4448  -25.8093   53.9650 H   0  0
   -0.5374  -27.3137   53.8035 H   0  0
   -0.7061  -28.4892   51.0643 H   0  0
   -2.4141  -28.3513   50.7204 H   0  0
   -2.0297  -24.1791   51.6524 H   0  0
   -3.5024  -26.9374   54.3792 H   0  0
   -2.3175  -27.9244   55.2535 H   0  0
   -2.3071  -30.2400   52.1147 H   0  0
   -1.0789  -29.5045   53.1836 H   0  0
   -5.5195  -24.7244   52.4264 H   0  0
   -4.6526  -21.2113   48.9998 H   0  0
   -7.3546  -23.2249   51.6886 H   0  0
   -3.6844  -31.3608   53.0013 H   0  0
   -5.3282  -27.5050   54.0431 H   0  0
   -2.6836  -21.0030   48.6144 H   0  0
   -2.9466  -22.4600   47.6850 H   0  0
   -1.2412  -21.9878   48.1061 H   0  0
   -5.9730  -32.1928   52.4749 H   0  0
   -7.6132  -28.3401   53.5102 H   0  0
   -7.2747  -21.3243   48.7788 H   0  0
   -6.8464  -20.1987   50.0538 H   0  0
   -8.1765  -21.3944   50.3499 H   0  0
  -10.0584  -29.9660   51.3416 H   0  0
   -9.1171  -28.7357   52.5633 H   0  0
   -9.1960  -30.3354   54.2349 H   0  0
  -10.1360  -31.5666   53.0124 H   0  0
   -6.2773  -31.5067   50.7989 H   0  0
  1  2  1  0
  2  3  2  0
  2  4  1  0
  3  5  1  0
  3  6  1  0
  4  7  2  0
  5  8  2  0
  6  9  1  0
  6 10  1  0
  6 11  1  0
  7  8  1  0
  9 12  2  0
  9 13  1  0
 10 14  1  0
 11 15  1  0
 13 16  1  0
 14 17  1  0
 15 17  1  0
 16 18  2  0
 16 19  1  0
 17 20  1  0
 18 21  1  0
 18 22  1  0
 19 23  2  0
 20 24  2  0
 20 25  1  0
 21 26  1  0
 22 27  2  0
 23 27  1  0
 24 28  1  0
 25 29  2  0
 27 30  1  0
 28 31  2  0
 29 31  1  0
 31 32  1  0
 32 33  1  0
 32 34  1  0
 32 35  1  0
 33 36  2  0
 33 37  1  0
 34 35  1  0
  4 38  1  0
  5 39  1  0
  7 40  1  0
  8 41  1  0
 10 42  1  0
 10 43  1  0
 11 44  1  0
 11 45  1  0
 13 46  1  0
 14 47  1  0
 14 48  1  0
 15 49  1  0
 15 50  1  0
 19 51  1  0
 22 52  1  0
 23 53  1  0
 24 54  1  0
 25 55  1  0
 26 56  1  0
 26 57  1  0
 26 58  1  0
 28 59  1  0
 29 60  1  0
 30 61  1  0
 30 62  1  0
 30 63  1  0
 34 64  1  0
 34 65  1  0
 35 66  1  0
 35 67  1  0
 37 68  1  0
M  END
> <Name>
11

> <AbsoluteEnergy>
77.7908

> <Clean Energy>
121.047

> <Column 1>
11

> <ConfNumber>
81

> <Filter_Pass>
Failed

> <IC50_nM>
65.29

> <LogP>
5.95

> <MOL_NUMBER>
8

> <QSAR_Score_pIC50>
7.185

> <RelativeEnergy>
14.5168

> <SMILES>
COc1cc(C)ccc1NC(=O)C1(c2ccccc2Cl)CCN(c2ccc(C3(C(=O)O)CC3)cc2)CC1

> <Toxicity_Alerts>
DILI, Basic N (hERG Warning)

> <Type>
Analog

> <POSE_NUMBER>
19

> <LibDockScore>
77.5329

> <HotSpots>
0.87,-24.32,52.78,A,63,1
-6.53,-23.32,50.38,A,45,23
-9.53,-30.12,52.78,A,62,34

$$$$
12
  SciTegic05082609073D

 80 84  0  0  0  0            999 V2000
   -1.7533  -23.7270   51.0969 O   0  0  0  1  0  0
   -1.8275  -24.7278   50.4146 C   0  0  0  1  0  0
   -0.7736  -25.0983   49.5887 N   0  0  0  1  0  0
   -3.0984  -25.5684   50.5543 C   0  0  0  1  0  0
    0.5274  -24.6302   49.7243 C   0  0  0  1  0  0
   -4.3625  -24.7147   50.2825 C   0  0  0  1  0  0
   -3.1992  -26.9319   49.7821 C   0  0  0  1  0  0
   -2.8904  -25.9614   52.0880 C   0  0  0  1  0  0
    1.4250  -24.6114   48.6236 C   0  0  0  1  0  0
    0.9706  -24.1871   50.9916 C   0  0  0  1  0  0
   -4.6232  -23.8951   49.1053 C   0  0  0  1  0  0
   -5.3581  -24.7317   51.3027 C   0  0  0  1  0  0
   -4.3255  -27.8560   50.3062 C   0  0  0  1  0  0
   -3.0782  -27.4481   52.4393 C   0  0  0  1  0  0
    1.0119  -25.0539   47.4362 O   0  0  0  1  0  0
    2.7367  -24.1162   48.8246 C   0  0  0  1  0  0
    2.2689  -23.6994   51.1713 C   0  0  0  1  0  0
   -5.7457  -23.0203   49.1632 C   0  0  0  1  0  0
   -3.8270  -23.8458   47.7715 C   0  0  0  1  0  0
   -6.4869  -23.9121   51.2748 C   0  0  0  1  0  0
   -4.3027  -27.9804   51.7943 N   0  0  0  1  0  0
    1.8733  -25.0988   46.2884 C   0  0  0  1  0  0
    3.1599  -23.6595   50.0864 C   0  0  0  1  0  0
   -6.6674  -23.0326   50.2149 C   0  0  0  1  0  0
   -4.7180  -23.3707   46.5769 C   0  0  0  1  0  0
   -3.3244  -25.2126   47.2623 C   0  0  0  1  0  0
   -2.6510  -22.8391   47.8316 C   0  0  0  1  0  0
   -5.3663  -28.4885   52.5396 C   0  0  0  1  0  0
    4.5466  -23.1364   50.2631 C   0  0  0  1  0  0
   -5.1679  -28.9706   53.8555 C   0  0  0  1  0  0
   -6.6772  -28.5089   52.0107 C   0  0  0  1  0  0
   -6.2563  -29.3408   54.6593 C   0  0  0  1  0  0
   -7.7670  -28.8841   52.8126 C   0  0  0  1  0  0
   -7.5631  -29.2518   54.1532 C   0  0  0  1  0  0
   -8.7420  -29.5187   55.0589 C   0  0  0  1  0  0
   -9.2025  -28.2525   55.7826 C   0  0  0  1  0  0
   -8.8318  -30.8606   55.7706 C   0  0  0  1  0  0
   -9.7865  -30.5424   54.6449 C   0  0  0  1  0  0
   -9.4412  -28.2982   56.9690 O   0  0  0  1  0  0
   -9.3255  -27.1199   55.0812 O   0  0  0  1  0  0
   -0.9771  -25.7888   48.7970 H   0  0
   -3.3742  -26.7277   48.7258 H   0  0
   -2.2472  -27.4564   49.8635 H   0  0
   -1.8870  -25.6611   52.3898 H   0  0
   -3.5816  -25.3755   52.6939 H   0  0
    0.2897  -24.2262   51.8419 H   0  0
   -5.2318  -25.4156   52.1420 H   0  0
   -5.2903  -27.4535   49.9977 H   0  0
   -4.2109  -28.8461   49.8650 H   0  0
   -3.1643  -27.5569   53.5204 H   0  0
   -2.2133  -28.0134   52.0923 H   0  0
    3.4318  -24.0884   47.9855 H   0  0
    2.5892  -23.3504   52.1530 H   0  0
   -5.8931  -22.3088   48.3507 H   0  0
   -7.2215  -23.9616   52.0786 H   0  0
    2.7235  -25.6960   46.6180 H   0  0
    2.2311  -24.0744   46.1851 H   0  0
    1.4104  -25.4822   45.3791 H   0  0
   -7.5221  -22.3563   50.2030 H   0  0
   -5.1042  -22.3781   46.8087 H   0  0
   -5.5561  -24.0604   46.4767 H   0  0
   -4.1391  -23.3441   45.6537 H   0  0
   -4.2000  -25.8511   47.1449 H   0  0
   -2.6995  -25.6360   48.0486 H   0  0
   -2.7735  -25.1222   46.3261 H   0  0
   -1.9866  -23.1360   48.6431 H   0  0
   -3.0560  -21.8515   48.0522 H   0  0
   -2.1092  -22.8230   46.8859 H   0  0
    4.6394  -22.3308   49.5347 H   0  0
    5.1978  -23.9452   49.9318 H   0  0
    4.7709  -22.8091   51.2783 H   0  0
   -4.1553  -29.0554   54.2498 H   0  0
   -6.8436  -28.2306   50.9700 H   0  0
   -6.0878  -29.6971   55.6755 H   0  0
   -8.7735  -28.8901   52.3941 H   0  0
   -9.3122  -30.7656   56.7444 H   0  0
   -8.0407  -31.5375   55.4480 H   0  0
   -9.5050  -31.0513   53.7230 H   0  0
  -10.7756  -30.2780   55.0189 H   0  0
   -9.9904  -27.3492   54.3016 H   0  0
  1  2  2  0
  2  3  1  0
  2  4  1  0
  3  5  1  0
  4  6  1  0
  4  7  1  0
  4  8  1  0
  5  9  2  0
  5 10  1  0
  6 11  2  0
  6 12  1  0
  7 13  1  0
  8 14  1  0
  9 15  1  0
  9 16  1  0
 10 17  2  0
 11 18  1  0
 11 19  1  0
 12 20  2  0
 13 21  1  0
 14 21  1  0
 15 22  1  0
 16 23  2  0
 17 23  1  0
 18 24  2  0
 19 25  1  0
 19 26  1  0
 19 27  1  0
 20 24  1  0
 21 28  1  0
 23 29  1  0
 28 30  2  0
 28 31  1  0
 30 32  1  0
 31 33  2  0
 32 34  2  0
 33 34  1  0
 34 35  1  0
 35 36  1  0
 35 37  1  0
 35 38  1  0
 36 39  2  0
 36 40  1  0
 37 38  1  0
  3 41  1  0
  7 42  1  0
  7 43  1  0
  8 44  1  0
  8 45  1  0
 10 46  1  0
 12 47  1  0
 13 48  1  0
 13 49  1  0
 14 50  1  0
 14 51  1  0
 16 52  1  0
 17 53  1  0
 18 54  1  0
 20 55  1  0
 22 56  1  0
 22 57  1  0
 22 58  1  0
 24 59  1  0
 25 60  1  0
 25 61  1  0
 25 62  1  0
 26 63  1  0
 26 64  1  0
 26 65  1  0
 27 66  1  0
 27 67  1  0
 27 68  1  0
 29 69  1  0
 29 70  1  0
 29 71  1  0
 30 72  1  0
 31 73  1  0
 32 74  1  0
 33 75  1  0
 37 76  1  0
 37 77  1  0
 38 78  1  0
 38 79  1  0
 40 80  1  0
M  END
> <Name>
12

> <AbsoluteEnergy>
98.8313

> <Clean Energy>
142.836

> <Column 1>
12

> <ConfNumber>
88

> <Filter_Pass>
Failed

> <IC50_nM>
73.84

> <LogP>
6.59

> <MOL_NUMBER>
9

> <QSAR_Score_pIC50>
7.132

> <RelativeEnergy>
13.6274

> <SMILES>
COc1cc(C)ccc1NC(=O)C1(c2ccccc2C(C)(C)C)CCN(c2ccc(C3(C(=O)O)CC3)cc2)CC1

> <Toxicity_Alerts>
DILI, Basic N (hERG Warning)

> <Type>
Analog

> <POSE_NUMBER>
1

> <LibDockScore>
142.9706

> <HotSpots>
2.67,-23.92,48.98,A,32,16
4.67,-22.92,49.98,A,40,29
-7.93,-28.32,52.38,A,59,33

$$$$
12
  SciTegic05082609073D

 80 84  0  0  0  0            999 V2000
   -1.5058  -24.0114   51.7332 O   0  0  0  1  0  0
   -1.7527  -24.6989   50.7663 C   0  0  0  1  0  0
   -0.7559  -24.9831   49.8376 N   0  0  0  1  0  0
   -3.1809  -25.2413   50.5960 C   0  0  0  1  0  0
    0.5613  -24.5503   49.9120 C   0  0  0  1  0  0
   -3.7377  -24.9960   49.1729 C   0  0  0  1  0  0
   -2.9402  -26.7387   51.0008 C   0  0  0  1  0  0
   -4.1610  -24.7716   51.7054 C   0  0  0  1  0  0
    1.3813  -24.5722   48.7536 C   0  0  0  1  0  0
    1.0950  -24.0972   51.1405 C   0  0  0  1  0  0
   -4.6912  -23.9693   48.7735 C   0  0  0  1  0  0
   -3.2443  -25.8651   48.1598 C   0  0  0  1  0  0
   -4.1594  -27.6569   51.2621 C   0  0  0  1  0  0
   -5.4955  -25.5347   51.7667 C   0  0  0  1  0  0
    0.8499  -24.9897   47.6014 O   0  0  0  1  0  0
    2.7281  -24.1436   48.8591 C   0  0  0  1  0  0
    2.4285  -23.6721   51.2261 C   0  0  0  1  0  0
   -5.0705  -23.9353   47.4011 C   0  0  0  1  0  0
   -5.3839  -22.8892   49.6435 C   0  0  0  1  0  0
   -3.6507  -25.7909   46.8279 C   0  0  0  1  0  0
   -5.3522  -27.0192   51.9122 N   0  0  0  1  0  0
    1.6141  -25.1203   46.3976 C   0  0  0  1  0  0
    3.2519  -23.6947   50.0885 C   0  0  0  1  0  0
   -4.5643  -24.8176   46.4458 C   0  0  0  1  0  0
   -5.8256  -21.6488   48.7990 C   0  0  0  1  0  0
   -4.5471  -22.2145   50.7574 C   0  0  0  1  0  0
   -6.6762  -23.4872   50.2472 C   0  0  0  1  0  0
   -6.3119  -27.8055   52.5836 C   0  0  0  1  0  0
    4.6727  -23.2401   50.1914 C   0  0  0  1  0  0
   -7.5534  -27.2696   53.0220 C   0  0  0  1  0  0
   -6.0763  -29.1831   52.8411 C   0  0  0  1  0  0
   -8.4929  -28.0652   53.7030 C   0  0  0  1  0  0
   -7.0150  -29.9757   53.5193 C   0  0  0  1  0  0
   -8.2270  -29.4204   53.9549 C   0  0  0  1  0  0
   -9.2342  -30.2799   54.6820 C   0  0  0  1  0  0
  -10.2935  -30.8542   53.7576 C   0  0  0  1  0  0
   -9.6172  -29.9356   56.1156 C   0  0  0  1  0  0
   -8.7696  -31.1547   55.8372 C   0  0  0  1  0  0
  -11.4611  -30.6579   54.0034 O   0  0  0  1  0  0
   -9.9042  -31.5629   52.6973 O   0  0  0  1  0  0
   -1.0273  -25.5855   48.9959 H   0  0
   -2.3316  -27.2034   50.2250 H   0  0
   -2.3153  -26.7507   51.8938 H   0  0
   -4.3733  -23.7126   51.5586 H   0  0
   -3.6639  -24.8633   52.6711 H   0  0
    0.4641  -24.0782   52.0291 H   0  0
   -2.5140  -26.6249   48.4381 H   0  0
   -3.8367  -28.4920   51.8839 H   0  0
   -4.4767  -28.0877   50.3125 H   0  0
   -6.0781  -25.1562   52.6066 H   0  0
   -6.0623  -25.3261   50.8593 H   0  0
    3.3681  -24.1613   47.9770 H   0  0
    2.8273  -23.3230   52.1786 H   0  0
   -5.7916  -23.1831   47.0813 H   0  0
   -3.2544  -26.4913   46.0927 H   0  0
    2.4324  -25.7840   46.6769 H   0  0
    2.0496  -24.1314   46.2546 H   0  0
    1.0563  -25.4713   45.5294 H   0  0
   -4.8840  -24.7432   45.4064 H   0  0
   -6.5119  -21.9884   48.0232 H   0  0
   -4.9410  -21.2238   48.3247 H   0  0
   -6.3092  -20.9050   49.4323 H   0  0
   -3.6793  -21.7852   50.2567 H   0  0
   -4.1890  -23.0259   51.3911 H   0  0
   -5.1049  -21.4682   51.3230 H   0  0
   -6.4297  -24.3485   50.8680 H   0  0
   -7.3499  -23.7943   49.4473 H   0  0
   -7.1686  -22.7325   50.8605 H   0  0
    4.7650  -22.4497   49.4465 H   0  0
    5.2603  -24.0852   49.8326 H   0  0
    4.9686  -22.9150   51.1888 H   0  0
   -7.7819  -26.2219   52.8268 H   0  0
   -5.1437  -29.6351   52.5036 H   0  0
   -9.4332  -27.6266   54.0371 H   0  0
   -6.8012  -31.0277   53.7084 H   0  0
  -10.6516  -30.2051   56.3287 H   0  0
   -9.0196  -29.1095   56.5010 H   0  0
   -7.7208  -30.9783   56.0760 H   0  0
   -9.3526  -32.0734   55.9022 H   0  0
   -9.3103  -32.3367   53.0860 H   0  0
  1  2  2  0
  2  3  1  0
  2  4  1  0
  3  5  1  0
  4  6  1  0
  4  7  1  0
  4  8  1  0
  5  9  2  0
  5 10  1  0
  6 11  2  0
  6 12  1  0
  7 13  1  0
  8 14  1  0
  9 15  1  0
  9 16  1  0
 10 17  2  0
 11 18  1  0
 11 19  1  0
 12 20  2  0
 13 21  1  0
 14 21  1  0
 15 22  1  0
 16 23  2  0
 17 23  1  0
 18 24  2  0
 19 25  1  0
 19 26  1  0
 19 27  1  0
 20 24  1  0
 21 28  1  0
 23 29  1  0
 28 30  2  0
 28 31  1  0
 30 32  1  0
 31 33  2  0
 32 34  2  0
 33 34  1  0
 34 35  1  0
 35 36  1  0
 35 37  1  0
 35 38  1  0
 36 39  2  0
 36 40  1  0
 37 38  1  0
  3 41  1  0
  7 42  1  0
  7 43  1  0
  8 44  1  0
  8 45  1  0
 10 46  1  0
 12 47  1  0
 13 48  1  0
 13 49  1  0
 14 50  1  0
 14 51  1  0
 16 52  1  0
 17 53  1  0
 18 54  1  0
 20 55  1  0
 22 56  1  0
 22 57  1  0
 22 58  1  0
 24 59  1  0
 25 60  1  0
 25 61  1  0
 25 62  1  0
 26 63  1  0
 26 64  1  0
 26 65  1  0
 27 66  1  0
 27 67  1  0
 27 68  1  0
 29 69  1  0
 29 70  1  0
 29 71  1  0
 30 72  1  0
 31 73  1  0
 32 74  1  0
 33 75  1  0
 37 76  1  0
 37 77  1  0
 38 78  1  0
 38 79  1  0
 40 80  1  0
M  END
> <Name>
12

> <AbsoluteEnergy>
87.8488

> <Clean Energy>
142.836

> <Column 1>
12

> <ConfNumber>
8

> <Filter_Pass>
Failed

> <IC50_nM>
73.84

> <LogP>
6.59

> <MOL_NUMBER>
9

> <QSAR_Score_pIC50>
7.132

> <RelativeEnergy>
2.64486

> <SMILES>
COc1cc(C)ccc1NC(=O)C1(c2ccccc2C(C)(C)C)CCN(c2ccc(C3(C(=O)O)CC3)cc2)CC1

> <Toxicity_Alerts>
DILI, Basic N (hERG Warning)

> <Type>
Analog

> <POSE_NUMBER>
2

> <LibDockScore>
140.8533

> <HotSpots>
-3.33,-21.92,50.38,A,47,26
4.07,-23.72,49.78,A,37,29
-8.73,-28.12,54.38,A,70,32

$$$$
12
  SciTegic05082609073D

 80 84  0  0  0  0            999 V2000
   -1.3932  -23.8679   51.3617 O   0  0  0  1  0  0
   -1.5016  -24.4994   50.3343 C   0  0  0  1  0  0
   -0.4703  -24.5082   49.4039 N   0  0  0  1  0  0
   -2.8010  -25.2794   50.0827 C   0  0  0  1  0  0
    0.8620  -24.2169   49.6675 C   0  0  0  1  0  0
   -3.5893  -24.7801   48.8473 C   0  0  0  1  0  0
   -3.7309  -25.3474   51.3394 C   0  0  0  1  0  0
   -2.2503  -26.7572   49.9743 C   0  0  0  1  0  0
    1.5113  -24.5927   50.8745 C   0  0  0  1  0  0
    1.5874  -23.5186   48.6763 C   0  0  0  1  0  0
   -4.6907  -23.8305   48.8402 C   0  0  0  1  0  0
   -3.1907  -25.3234   47.5941 C   0  0  0  1  0  0
   -4.8407  -26.4064   51.2247 C   0  0  0  1  0  0
   -3.3040  -27.8967   49.9723 C   0  0  0  1  0  0
    0.8398  -25.3047   51.7802 O   0  0  0  1  0  0
    2.8612  -24.2119   51.0698 C   0  0  0  1  0  0
    2.9284  -23.1659   48.8815 C   0  0  0  1  0  0
   -5.4066  -23.6742   47.6192 C   0  0  0  1  0  0
   -5.2181  -22.9453   49.9942 C   0  0  0  1  0  0
   -3.8870  -25.0878   46.4078 C   0  0  0  1  0  0
   -4.2202  -27.7510   51.1349 N   0  0  0  1  0  0
    1.3855  -25.6309   53.0622 C   0  0  0  1  0  0
    3.5692  -23.5034   50.0834 C   0  0  0  1  0  0
   -5.0151  -24.2804   46.4259 C   0  0  0  1  0  0
   -4.1633  -22.3586   50.9661 C   0  0  0  1  0  0
   -6.3207  -23.7042   50.7724 C   0  0  0  1  0  0
   -5.8910  -21.6432   49.4488 C   0  0  0  1  0  0
   -4.4160  -28.7556   52.0828 C   0  0  0  1  0  0
    4.9938  -23.1165   50.3202 C   0  0  0  1  0  0
   -5.3686  -28.5961   53.1169 C   0  0  0  1  0  0
   -3.6569  -29.9496   52.0516 C   0  0  0  1  0  0
   -5.4861  -29.5480   54.1398 C   0  0  0  1  0  0
   -3.7648  -30.8958   53.0842 C   0  0  0  1  0  0
   -4.6482  -30.6742   54.1536 C   0  0  0  1  0  0
   -4.6800  -31.6126   55.3368 C   0  0  0  1  0  0
   -3.8664  -31.0644   56.5083 C   0  0  0  1  0  0
   -4.7211  -33.1192   55.1330 C   0  0  0  1  0  0
   -5.9565  -32.3939   55.6102 C   0  0  0  1  0  0
   -2.8256  -30.4857   56.2843 O   0  0  0  1  0  0
   -4.3200  -31.2193   57.7500 O   0  0  0  1  0  0
   -0.7244  -24.7616   48.3959 H   0  0
   -4.1907  -24.3712   51.4932 H   0  0
   -3.1233  -25.5679   52.2171 H   0  0
   -1.6571  -26.8378   49.0634 H   0  0
   -1.5607  -26.9303   50.8005 H   0  0
    1.0979  -23.2507   47.7400 H   0  0
   -2.3011  -25.9522   47.5590 H   0  0
   -5.4816  -26.3595   52.1052 H   0  0
   -5.4335  -26.2189   50.3294 H   0  0
   -2.7969  -28.8598   50.0312 H   0  0
   -3.8823  -27.8531   49.0494 H   0  0
    3.3608  -24.4731   52.0027 H   0  0
    3.4744  -22.6285   48.1061 H   0  0
   -6.3017  -23.0522   47.6172 H   0  0
   -3.5470  -25.5349   45.4737 H   0  0
    1.6508  -24.6642   53.4902 H   0  0
    2.3221  -26.1377   52.8296 H   0  0
    0.7318  -26.2179   53.7073 H   0  0
   -5.5910  -24.1211   45.5143 H   0  0
   -3.4684  -21.7873   50.3506 H   0  0
   -3.6192  -23.2107   51.3736 H   0  0
   -4.6058  -21.7468   51.7522 H   0  0
   -5.9065  -24.6255   51.1819 H   0  0
   -7.1408  -23.9455   50.0962 H   0  0
   -6.6912  -23.0792   51.5850 H   0  0
   -6.7185  -21.9238   48.7971 H   0  0
   -5.1553  -21.0859   48.8688 H   0  0
   -6.2564  -21.0321   50.2741 H   0  0
    5.5087  -24.0527   50.5356 H   0  0
    4.9796  -22.5379   51.2439 H   0  0
    5.4480  -22.5711   49.4930 H   0  0
   -6.0196  -27.7218   53.1184 H   0  0
   -2.9811  -30.1371   51.2172 H   0  0
   -6.2294  -29.4132   54.9256 H   0  0
   -3.1620  -31.8035   53.0556 H   0  0
   -4.2248  -33.6469   55.9474 H   0  0
   -4.7893  -33.3777   54.0763 H   0  0
   -6.6832  -32.2665   54.8078 H   0  0
   -6.1178  -32.5342   56.6790 H   0  0
   -4.4554  -32.2547   57.8602 H   0  0
  1  2  2  0
  2  3  1  0
  2  4  1  0
  3  5  1  0
  4  6  1  0
  4  7  1  0
  4  8  1  0
  5  9  2  0
  5 10  1  0
  6 11  2  0
  6 12  1  0
  7 13  1  0
  8 14  1  0
  9 15  1  0
  9 16  1  0
 10 17  2  0
 11 18  1  0
 11 19  1  0
 12 20  2  0
 13 21  1  0
 14 21  1  0
 15 22  1  0
 16 23  2  0
 17 23  1  0
 18 24  2  0
 19 25  1  0
 19 26  1  0
 19 27  1  0
 20 24  1  0
 21 28  1  0
 23 29  1  0
 28 30  2  0
 28 31  1  0
 30 32  1  0
 31 33  2  0
 32 34  2  0
 33 34  1  0
 34 35  1  0
 35 36  1  0
 35 37  1  0
 35 38  1  0
 36 39  2  0
 36 40  1  0
 37 38  1  0
  3 41  1  0
  7 42  1  0
  7 43  1  0
  8 44  1  0
  8 45  1  0
 10 46  1  0
 12 47  1  0
 13 48  1  0
 13 49  1  0
 14 50  1  0
 14 51  1  0
 16 52  1  0
 17 53  1  0
 18 54  1  0
 20 55  1  0
 22 56  1  0
 22 57  1  0
 22 58  1  0
 24 59  1  0
 25 60  1  0
 25 61  1  0
 25 62  1  0
 26 63  1  0
 26 64  1  0
 26 65  1  0
 27 66  1  0
 27 67  1  0
 27 68  1  0
 29 69  1  0
 29 70  1  0
 29 71  1  0
 30 72  1  0
 31 73  1  0
 32 74  1  0
 33 75  1  0
 37 76  1  0
 37 77  1  0
 38 78  1  0
 38 79  1  0
 40 80  1  0
M  END
> <Name>
12

> <AbsoluteEnergy>
89.1617

> <Clean Energy>
142.836

> <Column 1>
12

> <ConfNumber>
13

> <Filter_Pass>
Failed

> <IC50_nM>
73.84

> <LogP>
6.59

> <MOL_NUMBER>
9

> <QSAR_Score_pIC50>
7.132

> <RelativeEnergy>
3.9578

> <SMILES>
COc1cc(C)ccc1NC(=O)C1(c2ccccc2C(C)(C)C)CCN(c2ccc(C3(C(=O)O)CC3)cc2)CC1

> <Toxicity_Alerts>
DILI, Basic N (hERG Warning)

> <Type>
Analog

> <POSE_NUMBER>
3

> <LibDockScore>
140.8455

> <HotSpots>
2.67,-22.92,49.98,A,39,16
-4.53,-24.52,46.19,A,17,18
2.27,-24.92,52.19,A,58,22

$$$$
12
  SciTegic05082609073D

 80 84  0  0  0  0            999 V2000
    0.2188  -23.0599   47.1317 O   0  0  0  1  0  0
   -0.7675  -23.2541   47.8035 C   0  0  0  1  0  0
   -1.7158  -22.2322   47.8416 N   0  0  0  1  0  0
   -0.9261  -24.6114   48.5181 C   0  0  0  1  0  0
   -2.9760  -22.3196   48.4057 C   0  0  0  1  0  0
   -0.4945  -24.5585   50.0134 C   0  0  0  1  0  0
   -0.1999  -25.8244   47.8255 C   0  0  0  1  0  0
   -2.4623  -24.9526   48.2190 C   0  0  0  1  0  0
   -4.1234  -22.3165   47.5745 C   0  0  0  1  0  0
   -3.1237  -22.4294   49.8037 C   0  0  0  1  0  0
    0.8510  -24.3613   50.5586 C   0  0  0  1  0  0
   -1.5496  -24.7254   50.9552 C   0  0  0  1  0  0
   -0.5297  -27.2060   48.4612 C   0  0  0  1  0  0
   -2.8242  -26.4390   47.9803 C   0  0  0  1  0  0
   -3.9666  -22.1219   46.2660 O   0  0  0  1  0  0
   -5.3914  -22.5394   48.1641 C   0  0  0  1  0  0
   -4.3857  -22.6556   50.3697 C   0  0  0  1  0  0
    0.9864  -24.4254   51.9791 C   0  0  0  1  0  0
    2.1786  -24.0650   49.7997 C   0  0  0  1  0  0
   -1.3590  -24.7815   52.3342 C   0  0  0  1  0  0
   -1.9703  -27.2904   48.8367 N   0  0  0  1  0  0
   -5.0735  -21.9452   45.3758 C   0  0  0  1  0  0
   -5.5238  -22.7272   49.5504 C   0  0  0  1  0  0
   -0.0825  -24.6387   52.8477 C   0  0  0  1  0  0
    3.4191  -24.8041   50.4044 C   0  0  0  1  0  0
    2.5637  -22.5704   49.8974 C   0  0  0  1  0  0
    2.2194  -24.5369   48.3329 C   0  0  0  1  0  0
   -2.4347  -27.9829   49.9586 C   0  0  0  1  0  0
   -6.8677  -23.0030   50.1411 C   0  0  0  1  0  0
   -1.7515  -29.1228   50.4434 C   0  0  0  1  0  0
   -3.5739  -27.5354   50.6721 C   0  0  0  1  0  0
   -2.1076  -29.7045   51.6727 C   0  0  0  1  0  0
   -3.9405  -28.1268   51.8880 C   0  0  0  1  0  0
   -3.1707  -29.1715   52.4215 C   0  0  0  1  0  0
   -3.4798  -29.6827   53.8101 C   0  0  0  1  0  0
   -2.3255  -29.4532   54.7930 C   0  0  0  1  0  0
   -4.3570  -30.9125   53.9901 C   0  0  0  1  0  0
   -4.9039  -29.5445   54.3259 C   0  0  0  1  0  0
   -1.1777  -29.5158   54.4043 O   0  0  0  1  0  0
   -2.6046  -29.1816   56.0661 O   0  0  0  1  0  0
   -1.4448  -21.2983   47.3952 H   0  0
    0.8773  -25.6648   47.8731 H   0  0
   -0.4794  -25.8472   46.7722 H   0  0
   -2.7787  -24.3811   47.3464 H   0  0
   -3.0641  -24.5850   49.0501 H   0  0
   -2.2500  -22.3377   50.4489 H   0  0
   -2.5670  -24.8146   50.5745 H   0  0
    0.0819  -27.3487   49.3521 H   0  0
   -0.2985  -27.9956   47.7463 H   0  0
   -3.8716  -26.6038   48.2329 H   0  0
   -2.6561  -26.6921   46.9335 H   0  0
   -6.2792  -22.5657   47.5323 H   0  0
   -4.4840  -22.7762   51.4485 H   0  0
    1.9809  -24.3006   52.4076 H   0  0
   -2.2069  -24.9363   53.0015 H   0  0
   -5.6229  -21.1049   45.8004 H   0  0
   -5.6859  -22.8326   45.5359 H   0  0
   -4.8060  -21.7948   44.3299 H   0  0
    0.0861  -24.6926   53.9232 H   0  0
    3.2131  -25.8742   50.3789 H   0  0
    3.5149  -24.4951   51.4453 H   0  0
    4.3272  -24.5725   49.8479 H   0  0
    2.6783  -22.3082   50.9492 H   0  0
    1.7578  -21.9742   49.4693 H   0  0
    3.4939  -22.3821   49.3613 H   0  0
    1.3870  -24.0530   47.8220 H   0  0
    2.0313  -25.6105   48.3410 H   0  0
    3.1695  -24.3041   47.8520 H   0  0
   -7.2297  -23.8881   49.6180 H   0  0
   -7.4915  -22.1665   49.8262 H   0  0
   -6.8581  -23.1324   51.2233 H   0  0
   -0.9402  -29.5548   49.8575 H   0  0
   -4.1737  -26.7193   50.2692 H   0  0
   -1.5588  -30.5694   52.0453 H   0  0
   -4.8245  -27.7751   52.4200 H   0  0
   -4.0869  -31.4688   54.8877 H   0  0
   -4.7381  -31.2746   53.0353 H   0  0
   -5.5769  -29.1792   53.5502 H   0  0
   -4.9242  -29.3727   55.4021 H   0  0
   -3.1996  -29.9831   56.3918 H   0  0
  1  2  2  0
  2  3  1  0
  2  4  1  0
  3  5  1  0
  4  6  1  0
  4  7  1  0
  4  8  1  0
  5  9  2  0
  5 10  1  0
  6 11  2  0
  6 12  1  0
  7 13  1  0
  8 14  1  0
  9 15  1  0
  9 16  1  0
 10 17  2  0
 11 18  1  0
 11 19  1  0
 12 20  2  0
 13 21  1  0
 14 21  1  0
 15 22  1  0
 16 23  2  0
 17 23  1  0
 18 24  2  0
 19 25  1  0
 19 26  1  0
 19 27  1  0
 20 24  1  0
 21 28  1  0
 23 29  1  0
 28 30  2  0
 28 31  1  0
 30 32  1  0
 31 33  2  0
 32 34  2  0
 33 34  1  0
 34 35  1  0
 35 36  1  0
 35 37  1  0
 35 38  1  0
 36 39  2  0
 36 40  1  0
 37 38  1  0
  3 41  1  0
  7 42  1  0
  7 43  1  0
  8 44  1  0
  8 45  1  0
 10 46  1  0
 12 47  1  0
 13 48  1  0
 13 49  1  0
 14 50  1  0
 14 51  1  0
 16 52  1  0
 17 53  1  0
 18 54  1  0
 20 55  1  0
 22 56  1  0
 22 57  1  0
 22 58  1  0
 24 59  1  0
 25 60  1  0
 25 61  1  0
 25 62  1  0
 26 63  1  0
 26 64  1  0
 26 65  1  0
 27 66  1  0
 27 67  1  0
 27 68  1  0
 29 69  1  0
 29 70  1  0
 29 71  1  0
 30 72  1  0
 31 73  1  0
 32 74  1  0
 33 75  1  0
 37 76  1  0
 37 77  1  0
 38 78  1  0
 38 79  1  0
 40 80  1  0
M  END
> <Name>
12

> <AbsoluteEnergy>
102.831

> <Clean Energy>
142.836

> <Column 1>
12

> <ConfNumber>
120

> <Filter_Pass>
Failed

> <IC50_nM>
73.84

> <LogP>
6.59

> <MOL_NUMBER>
9

> <QSAR_Score_pIC50>
7.132

> <RelativeEnergy>
17.6268

> <SMILES>
COc1cc(C)ccc1NC(=O)C1(c2ccccc2C(C)(C)C)CCN(c2ccc(C3(C(=O)O)CC3)cc2)CC1

> <Toxicity_Alerts>
DILI, Basic N (hERG Warning)

> <Type>
Analog

> <POSE_NUMBER>
4

> <LibDockScore>
135.7681

> <HotSpots>
-5.53,-22.92,48.98,A,33,16
-5.13,-22.92,46.19,A,18,22
1.67,-24.32,50.98,A,50,27

$$$$
12
  SciTegic05082609073D

 80 84  0  0  0  0            999 V2000
   -1.8403  -23.4264   50.7246 O   0  0  0  1  0  0
   -1.7908  -24.5744   50.3396 C   0  0  0  1  0  0
   -0.6943  -25.0322   49.6233 N   0  0  0  1  0  0
   -2.9642  -25.5031   50.6721 C   0  0  0  1  0  0
    0.6145  -24.5802   49.7385 C   0  0  0  1  0  0
   -4.3167  -24.8040   50.3584 C   0  0  0  1  0  0
   -2.9108  -26.9697   50.1280 C   0  0  0  1  0  0
   -2.6986  -25.7422   52.2077 C   0  0  0  1  0  0
    1.1792  -24.1280   50.9624 C   0  0  0  1  0  0
    1.4074  -24.5899   48.5710 C   0  0  0  1  0  0
   -4.6910  -24.1113   49.1291 C   0  0  0  1  0  0
   -5.2841  -24.8363   51.4047 C   0  0  0  1  0  0
   -4.1079  -27.8162   50.5837 C   0  0  0  1  0  0
   -3.3039  -27.0168   52.8673 C   0  0  0  1  0  0
    0.4472  -24.1792   52.0732 O   0  0  0  1  0  0
    2.5128  -23.6512   50.9657 C   0  0  0  1  0  0
    2.7304  -24.1274   48.5955 C   0  0  0  1  0  0
   -5.9671  -23.4769   49.1059 C   0  0  0  1  0  0
   -3.8734  -23.9514   47.8179 C   0  0  0  1  0  0
   -6.5385  -24.2374   51.3114 C   0  0  0  1  0  0
   -4.3516  -27.7213   52.0558 N   0  0  0  1  0  0
    0.9246  -23.7127   53.3391 C   0  0  0  1  0  0
    3.2871  -23.6488   49.7917 C   0  0  0  1  0  0
   -6.8775  -23.5446   50.1600 C   0  0  0  1  0  0
   -2.9479  -22.7141   47.8829 C   0  0  0  1  0  0
   -4.7860  -23.7252   46.5670 C   0  0  0  1  0  0
   -3.0537  -25.1816   47.3960 C   0  0  0  1  0  0
   -5.5107  -28.2484   52.6380 C   0  0  0  1  0  0
    4.6946  -23.1442   49.8047 C   0  0  0  1  0  0
   -6.7812  -28.0413   52.0470 C   0  0  0  1  0  0
   -5.4548  -28.9953   53.8405 C   0  0  0  1  0  0
   -7.9518  -28.4985   52.6698 C   0  0  0  1  0  0
   -6.6261  -29.4502   54.4655 C   0  0  0  1  0  0
   -7.8804  -29.1813   53.8937 C   0  0  0  1  0  0
   -9.1467  -29.6084   54.5932 C   0  0  0  1  0  0
   -9.3183  -28.9040   55.9299 C   0  0  0  1  0  0
   -9.6510  -31.0350   54.4348 C   0  0  0  1  0  0
  -10.3941  -29.8997   53.7744 C   0  0  0  1  0  0
   -9.8255  -29.4983   56.8530 O   0  0  0  1  0  0
   -8.8927  -27.6473   56.0533 O   0  0  0  1  0  0
   -0.8744  -25.8106   48.9116 H   0  0
   -2.8896  -26.9440   49.0385 H   0  0
   -1.9912  -27.4438   50.4710 H   0  0
   -1.6206  -25.7577   52.3680 H   0  0
   -3.0616  -24.8729   52.7560 H   0  0
    0.9852  -24.9621   47.6375 H   0  0
   -5.0288  -25.3575   52.3273 H   0  0
   -5.0009  -27.4834   50.0546 H   0  0
   -3.9282  -28.8587   50.3211 H   0  0
   -3.7381  -26.7410   53.8283 H   0  0
   -2.4966  -27.7191   53.0751 H   0  0
    2.9465  -23.2797   51.8941 H   0  0
    3.3279  -24.1395   47.6839 H   0  0
   -6.2459  -22.9093   48.2181 H   0  0
   -7.2468  -24.3130   52.1364 H   0  0
    1.2121  -22.6791   53.1464 H   0  0
    1.8487  -24.2700   53.4925 H   0  0
    0.2220  -23.8139   54.1662 H   0  0
   -7.8486  -23.0562   50.0790 H   0  0
   -2.2664  -22.8304   48.7256 H   0  0
   -3.5605  -21.8265   48.0411 H   0  0
   -2.3820  -22.6163   46.9565 H   0  0
   -5.3813  -22.8284   46.7385 H   0  0
   -5.4575  -24.5791   46.4775 H   0  0
   -4.1859  -23.6166   45.6635 H   0  0
   -3.7565  -26.0084   47.2935 H   0  0
   -2.3822  -25.4116   48.2232 H   0  0
   -2.5018  -25.0123   46.4714 H   0  0
    5.1943  -23.7401   50.5684 H   0  0
    4.6200  -22.1284   50.1929 H   0  0
    5.1973  -23.1901   48.8386 H   0  0
   -6.8503  -27.5184   51.0931 H   0  0
   -4.4865  -29.2203   54.2875 H   0  0
   -8.9203  -28.3228   52.2015 H   0  0
   -6.5623  -30.0133   55.3966 H   0  0
  -10.1613  -31.3810   55.3337 H   0  0
   -9.0498  -31.5938   53.7175 H   0  0
  -10.1904  -29.8539   52.7046 H   0  0
  -11.3006  -29.6401   54.3211 H   0  0
   -9.3917  -27.1127   55.2998 H   0  0
  1  2  2  0
  2  3  1  0
  2  4  1  0
  3  5  1  0
  4  6  1  0
  4  7  1  0
  4  8  1  0
  5  9  2  0
  5 10  1  0
  6 11  2  0
  6 12  1  0
  7 13  1  0
  8 14  1  0
  9 15  1  0
  9 16  1  0
 10 17  2  0
 11 18  1  0
 11 19  1  0
 12 20  2  0
 13 21  1  0
 14 21  1  0
 15 22  1  0
 16 23  2  0
 17 23  1  0
 18 24  2  0
 19 25  1  0
 19 26  1  0
 19 27  1  0
 20 24  1  0
 21 28  1  0
 23 29  1  0
 28 30  2  0
 28 31  1  0
 30 32  1  0
 31 33  2  0
 32 34  2  0
 33 34  1  0
 34 35  1  0
 35 36  1  0
 35 37  1  0
 35 38  1  0
 36 39  2  0
 36 40  1  0
 37 38  1  0
  3 41  1  0
  7 42  1  0
  7 43  1  0
  8 44  1  0
  8 45  1  0
 10 46  1  0
 12 47  1  0
 13 48  1  0
 13 49  1  0
 14 50  1  0
 14 51  1  0
 16 52  1  0
 17 53  1  0
 18 54  1  0
 20 55  1  0
 22 56  1  0
 22 57  1  0
 22 58  1  0
 24 59  1  0
 25 60  1  0
 25 61  1  0
 25 62  1  0
 26 63  1  0
 26 64  1  0
 26 65  1  0
 27 66  1  0
 27 67  1  0
 27 68  1  0
 29 69  1  0
 29 70  1  0
 29 71  1  0
 30 72  1  0
 31 73  1  0
 32 74  1  0
 33 75  1  0
 37 76  1  0
 37 77  1  0
 38 78  1  0
 38 79  1  0
 40 80  1  0
M  END
> <Name>
12

> <AbsoluteEnergy>
93.4059

> <Clean Energy>
142.836

> <Column 1>
12

> <ConfNumber>
35

> <Filter_Pass>
Failed

> <IC50_nM>
73.84

> <LogP>
6.59

> <MOL_NUMBER>
9

> <QSAR_Score_pIC50>
7.132

> <RelativeEnergy>
8.20198

> <SMILES>
COc1cc(C)ccc1NC(=O)C1(c2ccccc2C(C)(C)C)CCN(c2ccc(C3(C(=O)O)CC3)cc2)CC1

> <Toxicity_Alerts>
DILI, Basic N (hERG Warning)

> <Type>
Analog

> <POSE_NUMBER>
5

> <LibDockScore>
135.5413

> <HotSpots>
2.67,-23.92,48.98,A,32,16
-5.93,-24.72,51.19,A,53,20
-4.53,-24.52,46.19,A,17,26

$$$$
12
  SciTegic05082609073D

 80 84  0  0  0  0            999 V2000
   -3.6544  -25.6196   49.0062 O   0  0  0  1  0  0
   -2.6895  -24.9960   49.3970 C   0  0  0  1  0  0
   -2.3484  -23.7818   48.8082 N   0  0  0  1  0  0
   -1.8839  -25.5862   50.5656 C   0  0  0  1  0  0
   -3.0856  -23.1192   47.8334 C   0  0  0  1  0  0
   -0.4238  -25.0957   50.6107 C   0  0  0  1  0  0
   -2.8123  -25.0216   51.7486 C   0  0  0  1  0  0
   -1.8661  -27.1749   50.5526 C   0  0  0  1  0  0
   -2.4220  -22.2607   46.9145 C   0  0  0  1  0  0
   -4.4887  -23.2836   47.7429 C   0  0  0  1  0  0
    0.5060  -25.0264   49.4901 C   0  0  0  1  0  0
    0.0479  -24.6769   51.8861 C   0  0  0  1  0  0
   -3.0122  -25.9108   52.9941 C   0  0  0  1  0  0
   -2.0733  -27.8888   51.9012 C   0  0  0  1  0  0
   -1.1010  -22.1098   47.0147 O   0  0  0  1  0  0
   -3.1821  -21.6057   45.9165 C   0  0  0  1  0  0
   -5.2228  -22.6252   46.7473 C   0  0  0  1  0  0
    1.7701  -24.4237   49.7367 C   0  0  0  1  0  0
    0.3670  -25.5373   48.0316 C   0  0  0  1  0  0
    1.3077  -24.1056   52.0761 C   0  0  0  1  0  0
   -3.2530  -27.2791   52.5168 N   0  0  0  1  0  0
   -0.2970  -21.6013   45.9458 C   0  0  0  1  0  0
   -4.5737  -21.7870   45.8254 C   0  0  0  1  0  0
    2.1649  -23.9611   50.9927 C   0  0  0  1  0  0
    1.4794  -26.5904   47.7988 C   0  0  0  1  0  0
    0.5677  -24.3742   47.0115 C   0  0  0  1  0  0
   -0.9405  -26.2078   47.5437 C   0  0  0  1  0  0
   -4.5047  -27.8604   52.4634 C   0  0  0  1  0  0
   -5.3446  -21.0916   44.7536 C   0  0  0  1  0  0
   -5.6187  -27.0034   52.5457 C   0  0  0  1  0  0
   -4.7092  -29.2483   52.3179 C   0  0  0  1  0  0
   -6.9184  -27.5141   52.4563 C   0  0  0  1  0  0
   -6.0215  -29.7608   52.2355 C   0  0  0  1  0  0
   -7.1304  -28.8950   52.2873 C   0  0  0  1  0  0
   -8.5441  -29.4286   52.1535 C   0  0  0  1  0  0
   -9.3564  -29.3423   53.4518 C   0  0  0  1  0  0
   -8.8128  -30.5227   51.1296 C   0  0  0  1  0  0
   -9.2932  -29.1192   50.8659 C   0  0  0  1  0  0
   -9.2791  -28.3153   54.0899 O   0  0  0  1  0  0
  -10.1266  -30.3576   53.8640 O   0  0  0  1  0  0
   -1.4406  -23.3184   49.1339 H   0  0
   -2.4042  -24.0659   52.0774 H   0  0
   -3.7946  -24.7938   51.3349 H   0  0
   -0.9154  -27.5058   50.1345 H   0  0
   -2.6344  -27.5219   49.8616 H   0  0
   -5.0033  -23.9289   48.4549 H   0  0
   -0.6018  -24.8076   52.7515 H   0  0
   -3.8742  -25.5617   53.5626 H   0  0
   -2.1138  -25.8881   53.6109 H   0  0
   -2.2499  -28.9513   51.7339 H   0  0
   -1.2024  -27.7368   52.5388 H   0  0
   -2.6801  -20.9491   45.2059 H   0  0
   -6.3023  -22.7640   46.6878 H   0  0
    2.4650  -24.3178   48.9036 H   0  0
    1.6164  -23.7752   53.0679 H   0  0
   -0.7513  -20.6390   45.7099 H   0  0
   -0.5201  -22.2649   45.1104 H   0  0
    0.7691  -21.5291   46.1612 H   0  0
    3.1391  -23.4897   51.1227 H   0  0
    1.3603  -27.4276   48.4865 H   0  0
    2.4631  -26.1398   47.9303 H   0  0
    1.3987  -26.9624   46.7774 H   0  0
    1.5603  -23.9472   47.1548 H   0  0
   -0.1818  -23.6058   47.2013 H   0  0
    0.4675  -24.7470   45.9921 H   0  0
   -1.7155  -25.4707   47.7539 H   0  0
   -1.0976  -27.0304   48.2414 H   0  0
   -0.9282  -26.5285   46.5020 H   0  0
   -4.8754  -21.4024   43.8201 H   0  0
   -5.1237  -20.0326   44.8874 H   0  0
   -6.4144  -21.2998   44.7720 H   0  0
   -5.4674  -25.9324   52.6803 H   0  0
   -3.8552  -29.9239   52.2692 H   0  0
   -7.7715  -26.8385   52.5179 H   0  0
   -6.1776  -30.8345   52.1310 H   0  0
   -9.6271  -31.1746   51.4457 H   0  0
   -7.9183  -30.7577   50.5527 H   0  0
   -8.6565  -28.6038   50.1468 H   0  0
  -10.3645  -29.0203   51.0412 H   0  0
   -9.4675  -31.1740   53.9051 H   0  0
  1  2  2  0
  2  3  1  0
  2  4  1  0
  3  5  1  0
  4  6  1  0
  4  7  1  0
  4  8  1  0
  5  9  2  0
  5 10  1  0
  6 11  2  0
  6 12  1  0
  7 13  1  0
  8 14  1  0
  9 15  1  0
  9 16  1  0
 10 17  2  0
 11 18  1  0
 11 19  1  0
 12 20  2  0
 13 21  1  0
 14 21  1  0
 15 22  1  0
 16 23  2  0
 17 23  1  0
 18 24  2  0
 19 25  1  0
 19 26  1  0
 19 27  1  0
 20 24  1  0
 21 28  1  0
 23 29  1  0
 28 30  2  0
 28 31  1  0
 30 32  1  0
 31 33  2  0
 32 34  2  0
 33 34  1  0
 34 35  1  0
 35 36  1  0
 35 37  1  0
 35 38  1  0
 36 39  2  0
 36 40  1  0
 37 38  1  0
  3 41  1  0
  7 42  1  0
  7 43  1  0
  8 44  1  0
  8 45  1  0
 10 46  1  0
 12 47  1  0
 13 48  1  0
 13 49  1  0
 14 50  1  0
 14 51  1  0
 16 52  1  0
 17 53  1  0
 18 54  1  0
 20 55  1  0
 22 56  1  0
 22 57  1  0
 22 58  1  0
 24 59  1  0
 25 60  1  0
 25 61  1  0
 25 62  1  0
 26 63  1  0
 26 64  1  0
 26 65  1  0
 27 66  1  0
 27 67  1  0
 27 68  1  0
 29 69  1  0
 29 70  1  0
 29 71  1  0
 30 72  1  0
 31 73  1  0
 32 74  1  0
 33 75  1  0
 37 76  1  0
 37 77  1  0
 38 78  1  0
 38 79  1  0
 40 80  1  0
M  END
> <Name>
12

> <AbsoluteEnergy>
101.776

> <Clean Energy>
142.836

> <Column 1>
12

> <ConfNumber>
113

> <Filter_Pass>
Failed

> <IC50_nM>
73.84

> <LogP>
6.59

> <MOL_NUMBER>
9

> <QSAR_Score_pIC50>
7.132

> <RelativeEnergy>
16.5722

> <SMILES>
COc1cc(C)ccc1NC(=O)C1(c2ccccc2C(C)(C)C)CCN(c2ccc(C3(C(=O)O)CC3)cc2)CC1

> <Toxicity_Alerts>
DILI, Basic N (hERG Warning)

> <Type>
Analog

> <POSE_NUMBER>
6

> <LibDockScore>
134.7721

> <HotSpots>
-4.93,-23.52,47.59,A,26,10
0.27,-24.92,46.38,A,19,26
-6.33,-21.32,44.98,A,9,29

$$$$
12
  SciTegic05082609073D

 80 84  0  0  0  0            999 V2000
   -3.6586  -25.6148   49.0318 O   0  0  0  1  0  0
   -2.6768  -24.9966   49.3875 C   0  0  0  1  0  0
   -2.3318  -23.8010   48.7639 N   0  0  0  1  0  0
   -1.8542  -25.5718   50.5517 C   0  0  0  1  0  0
   -3.0921  -23.1379   47.8073 C   0  0  0  1  0  0
   -0.3970  -25.0711   50.5764 C   0  0  0  1  0  0
   -2.7731  -25.0038   51.7405 C   0  0  0  1  0  0
   -1.8256  -27.1604   50.5513 C   0  0  0  1  0  0
   -2.4516  -22.2722   46.8788 C   0  0  0  1  0  0
   -4.4958  -23.3090   47.7446 C   0  0  0  1  0  0
    0.5230  -25.0143   49.4471 C   0  0  0  1  0  0
    0.0824  -24.6282   51.8407 C   0  0  0  1  0  0
   -2.9529  -25.8842   52.9952 C   0  0  0  1  0  0
   -2.0128  -27.8646   51.9079 C   0  0  0  1  0  0
   -1.1295  -22.1151   46.9527 O   0  0  0  1  0  0
   -3.2350  -21.6168   45.8994 C   0  0  0  1  0  0
   -5.2533  -22.6500   46.7670 C   0  0  0  1  0  0
    1.7850  -24.3994   49.6730 C   0  0  0  1  0  0
    0.3753  -25.5502   47.9984 C   0  0  0  1  0  0
    1.3399  -24.0455   52.0106 C   0  0  0  1  0  0
   -3.1897  -27.2579   52.5317 N   0  0  0  1  0  0
   -0.3474  -21.6168   45.8630 C   0  0  0  1  0  0
   -4.6273  -21.8046   45.8358 C   0  0  0  1  0  0
    2.1871  -23.9135   50.9178 C   0  0  0  1  0  0
    1.4419  -26.6563   47.7998 C   0  0  0  1  0  0
    0.6373  -24.4197   46.9558 C   0  0  0  1  0  0
   -0.9560  -26.1727   47.5112 C   0  0  0  1  0  0
   -4.4380  -27.8480   52.4971 C   0  0  0  1  0  0
   -5.4234  -21.1086   44.7829 C   0  0  0  1  0  0
   -5.5554  -27.0044   52.6448 C   0  0  0  1  0  0
   -4.6362  -29.2318   52.3088 C   0  0  0  1  0  0
   -6.8533  -27.5231   52.5783 C   0  0  0  1  0  0
   -5.9465  -29.7527   52.2497 C   0  0  0  1  0  0
   -7.0598  -28.8991   52.3671 C   0  0  0  1  0  0
   -8.4729  -29.4402   52.2589 C   0  0  0  1  0  0
   -9.2602  -29.3630   53.5730 C   0  0  0  1  0  0
   -8.7554  -30.5322   51.2364 C   0  0  0  1  0  0
   -9.2487  -29.1305   50.9872 C   0  0  0  1  0  0
   -9.2996  -28.2911   54.1365 O   0  0  0  1  0  0
   -9.8858  -30.4343   54.0778 O   0  0  0  1  0  0
   -1.4013  -23.3537   49.0450 H   0  0
   -2.3678  -24.0427   52.0570 H   0  0
   -3.7616  -24.7859   51.3361 H   0  0
   -0.8774  -27.4882   50.1253 H   0  0
   -2.5992  -27.5182   49.8718 H   0  0
   -4.9926  -23.9600   48.4640 H   0  0
   -0.5591  -24.7489   52.7136 H   0  0
   -3.8108  -25.5363   53.5706 H   0  0
   -2.0478  -25.8505   53.6016 H   0  0
   -2.1839  -28.9296   51.7512 H   0  0
   -1.1359  -27.7015   52.5344 H   0  0
   -2.7508  -20.9547   45.1816 H   0  0
   -6.3331  -22.7940   46.7289 H   0  0
    2.4722  -24.3028   48.8324 H   0  0
    1.6546  -23.6966   52.9941 H   0  0
   -0.8098  -20.6592   45.6238 H   0  0
   -0.5832  -22.2915   45.0400 H   0  0
    0.7222  -21.5380   46.0577 H   0  0
    3.1592  -23.4337   51.0318 H   0  0
    1.2791  -27.4723   48.5039 H   0  0
    2.4434  -26.2469   47.9319 H   0  0
    1.3544  -27.0465   46.7858 H   0  0
    1.6465  -24.0341   47.1004 H   0  0
   -0.0790  -23.6149   47.1213 H   0  0
    0.5303  -24.8098   45.9436 H   0  0
   -1.6995  -25.3977   47.6975 H   0  0
   -1.1561  -26.9722   48.2246 H   0  0
   -0.9481  -26.5162   46.4768 H   0  0
   -4.9717  -21.4131   43.8388 H   0  0
   -5.2050  -20.0491   44.9167 H   0  0
   -6.4915  -21.3223   44.8222 H   0  0
   -5.4082  -25.9375   52.8125 H   0  0
   -3.7789  -29.8976   52.2091 H   0  0
   -7.7092  -26.8576   52.6907 H   0  0
   -6.0976  -30.8234   52.1122 H   0  0
   -9.5598  -31.1898   51.5660 H   0  0
   -7.8710  -30.7601   50.6414 H   0  0
   -8.6290  -28.6090   50.2578 H   0  0
  -10.3169  -29.0382   51.1837 H   0  0
   -9.1277  -31.1567   54.1541 H   0  0
  1  2  2  0
  2  3  1  0
  2  4  1  0
  3  5  1  0
  4  6  1  0
  4  7  1  0
  4  8  1  0
  5  9  2  0
  5 10  1  0
  6 11  2  0
  6 12  1  0
  7 13  1  0
  8 14  1  0
  9 15  1  0
  9 16  1  0
 10 17  2  0
 11 18  1  0
 11 19  1  0
 12 20  2  0
 13 21  1  0
 14 21  1  0
 15 22  1  0
 16 23  2  0
 17 23  1  0
 18 24  2  0
 19 25  1  0
 19 26  1  0
 19 27  1  0
 20 24  1  0
 21 28  1  0
 23 29  1  0
 28 30  2  0
 28 31  1  0
 30 32  1  0
 31 33  2  0
 32 34  2  0
 33 34  1  0
 34 35  1  0
 35 36  1  0
 35 37  1  0
 35 38  1  0
 36 39  2  0
 36 40  1  0
 37 38  1  0
  3 41  1  0
  7 42  1  0
  7 43  1  0
  8 44  1  0
  8 45  1  0
 10 46  1  0
 12 47  1  0
 13 48  1  0
 13 49  1  0
 14 50  1  0
 14 51  1  0
 16 52  1  0
 17 53  1  0
 18 54  1  0
 20 55  1  0
 22 56  1  0
 22 57  1  0
 22 58  1  0
 24 59  1  0
 25 60  1  0
 25 61  1  0
 25 62  1  0
 26 63  1  0
 26 64  1  0
 26 65  1  0
 27 66  1  0
 27 67  1  0
 27 68  1  0
 29 69  1  0
 29 70  1  0
 29 71  1  0
 30 72  1  0
 31 73  1  0
 32 74  1  0
 33 75  1  0
 37 76  1  0
 37 77  1  0
 38 78  1  0
 38 79  1  0
 40 80  1  0
M  END
> <Name>
12

> <AbsoluteEnergy>
101.776

> <Clean Energy>
142.836

> <Column 1>
12

> <ConfNumber>
113

> <Filter_Pass>
Failed

> <IC50_nM>
73.84

> <LogP>
6.59

> <MOL_NUMBER>
9

> <QSAR_Score_pIC50>
7.132

> <RelativeEnergy>
16.5722

> <SMILES>
COc1cc(C)ccc1NC(=O)C1(c2ccccc2C(C)(C)C)CCN(c2ccc(C3(C(=O)O)CC3)cc2)CC1

> <Toxicity_Alerts>
DILI, Basic N (hERG Warning)

> <Type>
Analog

> <POSE_NUMBER>
7

> <LibDockScore>
134.5898

> <HotSpots>
-3.53,-22.32,46.59,A,20,16
0.87,-24.32,52.78,A,63,20
-8.53,-31.32,51.19,A,51,38

$$$$
12
  SciTegic05082609073D

 80 84  0  0  0  0            999 V2000
   -1.2690  -26.0104   49.3267 O   0  0  0  1  0  0
   -1.7583  -25.2252   50.1102 C   0  0  0  1  0  0
   -0.9745  -24.2219   50.6782 N   0  0  0  1  0  0
   -3.2277  -25.4012   50.5321 C   0  0  0  1  0  0
    0.3963  -24.0872   50.5044 C   0  0  0  1  0  0
   -4.1414  -24.1779   50.2613 C   0  0  0  1  0  0
   -3.9024  -26.7091   49.9460 C   0  0  0  1  0  0
   -2.9848  -25.7128   52.0679 C   0  0  0  1  0  0
    1.3323  -24.2563   51.5820 C   0  0  0  1  0  0
    0.8894  -23.7691   49.2141 C   0  0  0  1  0  0
   -4.4132  -23.5307   48.9831 C   0  0  0  1  0  0
   -4.8041  -23.6492   51.4044 C   0  0  0  1  0  0
   -5.0240  -27.3699   50.7790 C   0  0  0  1  0  0
   -4.1403  -26.3619   52.8475 C   0  0  0  1  0  0
    1.0749  -24.5969   52.8487 O   0  0  0  1  0  0
    2.7031  -24.0810   51.3188 C   0  0  0  1  0  0
    2.2648  -23.6215   48.9794 C   0  0  0  1  0  0
   -5.4929  -22.5930   48.9539 C   0  0  0  1  0  0
   -3.6483  -23.7005   47.6411 C   0  0  0  1  0  0
   -5.8348  -22.7150   51.3287 C   0  0  0  1  0  0
   -4.5300  -27.5924   52.1439 N   0  0  0  1  0  0
   -0.2231  -24.9114   53.3625 C   0  0  0  1  0  0
    3.1772  -23.7693   50.0318 C   0  0  0  1  0  0
   -6.1981  -22.2013   50.0930 C   0  0  0  1  0  0
   -2.3312  -22.8954   47.7117 C   0  0  0  1  0  0
   -4.4036  -23.1093   46.4054 C   0  0  0  1  0  0
   -3.3483  -25.1382   47.1736 C   0  0  0  1  0  0
   -4.3669  -28.8295   52.7245 C   0  0  0  1  0  0
    4.6420  -23.5995   49.7855 C   0  0  0  1  0  0
   -4.8933  -30.0061   52.1480 C   0  0  0  1  0  0
   -3.6651  -28.9003   53.9472 C   0  0  0  1  0  0
   -4.8167  -31.2190   52.8557 C   0  0  0  1  0  0
   -3.5785  -30.1076   54.6444 C   0  0  0  1  0  0
   -4.2109  -31.2518   54.1301 C   0  0  0  1  0  0
   -4.2643  -32.4911   54.9830 C   0  0  0  1  0  0
   -5.0218  -32.1619   56.2654 C   0  0  0  1  0  0
   -3.0723  -33.4287   55.0494 C   0  0  0  1  0  0
   -4.3399  -33.8810   54.3483 C   0  0  0  1  0  0
   -6.1431  -32.5996   56.4209 O   0  0  0  1  0  0
   -4.4376  -31.3526   57.1594 O   0  0  0  1  0  0
   -1.4673  -23.5002   51.2956 H   0  0
   -4.3047  -26.4745   48.9605 H   0  0
   -3.1224  -27.4517   49.7776 H   0  0
   -2.7165  -24.7830   52.5695 H   0  0
   -2.1116  -26.3596   52.1529 H   0  0
    0.1881  -23.6369   48.3902 H   0  0
   -4.4891  -23.9928   52.3897 H   0  0
   -5.2988  -28.3246   50.3306 H   0  0
   -5.8927  -26.7122   50.8082 H   0  0
   -3.8099  -26.6059   53.8571 H   0  0
   -4.9879  -25.6777   52.8858 H   0  0
    3.4175  -24.1897   52.1348 H   0  0
    2.6239  -23.3914   47.9763 H   0  0
   -5.7793  -22.1628   47.9942 H   0  0
   -6.3509  -22.3909   52.2324 H   0  0
   -0.5632  -25.7089   52.7019 H   0  0
   -0.8111  -24.0311   53.1027 H   0  0
   -0.2707  -25.1711   54.4200 H   0  0
   -7.0269  -21.4980   50.0119 H   0  0
   -1.7141  -23.2676   48.5295 H   0  0
   -2.5516  -21.8399   47.8715 H   0  0
   -1.7894  -23.0102   46.7729 H   0  0
   -4.5737  -22.0503   46.5994 H   0  0
   -5.3711  -23.6073   46.3419 H   0  0
   -3.8342  -23.2490   45.4865 H   0  0
   -4.3135  -25.6413   47.1152 H   0  0
   -2.7847  -25.6041   47.9819 H   0  0
   -2.8104  -25.1767   46.2264 H   0  0
    5.0915  -24.5337   50.1221 H   0  0
    4.9544  -22.8247   50.4856 H   0  0
    4.8964  -23.3596   48.7531 H   0  0
   -5.3557  -29.9745   51.1615 H   0  0
   -3.1876  -28.0070   54.3499 H   0  0
   -5.2243  -32.1317   52.4210 H   0  0
   -3.0240  -30.1616   55.5812 H   0  0
   -2.9748  -33.8851   56.0344 H   0  0
   -2.2989  -33.1452   54.3355 H   0  0
   -4.2386  -33.8304   53.2642 H   0  0
   -4.9161  -34.5700   54.9659 H   0  0
   -4.2196  -30.4692   56.6354 H   0  0
  1  2  2  0
  2  3  1  0
  2  4  1  0
  3  5  1  0
  4  6  1  0
  4  7  1  0
  4  8  1  0
  5  9  2  0
  5 10  1  0
  6 11  2  0
  6 12  1  0
  7 13  1  0
  8 14  1  0
  9 15  1  0
  9 16  1  0
 10 17  2  0
 11 18  1  0
 11 19  1  0
 12 20  2  0
 13 21  1  0
 14 21  1  0
 15 22  1  0
 16 23  2  0
 17 23  1  0
 18 24  2  0
 19 25  1  0
 19 26  1  0
 19 27  1  0
 20 24  1  0
 21 28  1  0
 23 29  1  0
 28 30  2  0
 28 31  1  0
 30 32  1  0
 31 33  2  0
 32 34  2  0
 33 34  1  0
 34 35  1  0
 35 36  1  0
 35 37  1  0
 35 38  1  0
 36 39  2  0
 36 40  1  0
 37 38  1  0
  3 41  1  0
  7 42  1  0
  7 43  1  0
  8 44  1  0
  8 45  1  0
 10 46  1  0
 12 47  1  0
 13 48  1  0
 13 49  1  0
 14 50  1  0
 14 51  1  0
 16 52  1  0
 17 53  1  0
 18 54  1  0
 20 55  1  0
 22 56  1  0
 22 57  1  0
 22 58  1  0
 24 59  1  0
 25 60  1  0
 25 61  1  0
 25 62  1  0
 26 63  1  0
 26 64  1  0
 26 65  1  0
 27 66  1  0
 27 67  1  0
 27 68  1  0
 29 69  1  0
 29 70  1  0
 29 71  1  0
 30 72  1  0
 31 73  1  0
 32 74  1  0
 33 75  1  0
 37 76  1  0
 37 77  1  0
 38 78  1  0
 38 79  1  0
 40 80  1  0
M  END
> <Name>
12

> <AbsoluteEnergy>
103.199

> <Clean Energy>
142.836

> <Column 1>
12

> <ConfNumber>
124

> <Filter_Pass>
Failed

> <IC50_nM>
73.84

> <LogP>
6.59

> <MOL_NUMBER>
9

> <QSAR_Score_pIC50>
7.132

> <RelativeEnergy>
17.9951

> <SMILES>
COc1cc(C)ccc1NC(=O)C1(c2ccccc2C(C)(C)C)CCN(c2ccc(C3(C(=O)O)CC3)cc2)CC1

> <Toxicity_Alerts>
DILI, Basic N (hERG Warning)

> <Type>
Analog

> <POSE_NUMBER>
8

> <LibDockScore>
132.0225

> <HotSpots>
-5.13,-22.92,46.19,A,18,26
4.07,-23.72,49.78,A,37,29
-3.93,-33.72,53.78,A,66,37

$$$$
12
  SciTegic05082609073D

 80 84  0  0  0  0            999 V2000
   -1.4475  -23.3557   51.2827 O   0  0  0  1  0  0
   -1.5454  -24.3008   50.5285 C   0  0  0  1  0  0
   -2.6352  -24.3997   49.6808 N   0  0  0  1  0  0
   -0.4438  -25.3717   50.5640 C   0  0  0  1  0  0
   -3.8827  -23.8699   49.9178 C   0  0  0  1  0  0
    0.9380  -24.7980   50.1391 C   0  0  0  1  0  0
   -0.4921  -25.7885   52.0793 C   0  0  0  1  0  0
   -0.7020  -26.7563   49.8874 C   0  0  0  1  0  0
   -4.7378  -23.5253   48.8436 C   0  0  0  1  0  0
   -4.3118  -23.7102   51.2492 C   0  0  0  1  0  0
    1.3202  -24.2855   48.8277 C   0  0  0  1  0  0
    1.9361  -24.7608   51.1580 C   0  0  0  1  0  0
   -1.8617  -26.2742   52.5938 C   0  0  0  1  0  0
   -1.9615  -27.5538   50.3313 C   0  0  0  1  0  0
   -4.2993  -23.6773   47.5935 O   0  0  0  1  0  0
   -6.0289  -23.0274   49.1397 C   0  0  0  1  0  0
   -5.5966  -23.2248   51.5241 C   0  0  0  1  0  0
    2.5612  -23.5912   48.7355 C   0  0  0  1  0  0
    0.5510  -24.3971   47.4884 C   0  0  0  1  0  0
    3.1751  -24.1377   50.9913 C   0  0  0  1  0  0
   -2.5941  -27.1401   51.6270 N   0  0  0  1  0  0
   -5.0538  -23.2471   46.4563 C   0  0  0  1  0  0
   -6.4614  -22.8793   50.4712 C   0  0  0  1  0  0
    3.4754  -23.5218   49.7857 C   0  0  0  1  0  0
    1.4081  -25.0539   46.3572 C   0  0  0  1  0  0
    0.1766  -23.0053   46.9312 C   0  0  0  1  0  0
   -0.6631  -25.3477   47.5335 C   0  0  0  1  0  0
   -3.8890  -27.5445   51.9246 C   0  0  0  1  0  0
   -7.8275  -22.3603   50.7765 C   0  0  0  1  0  0
   -4.3190  -28.8620   51.6478 C   0  0  0  1  0  0
   -4.7969  -26.6397   52.5159 C   0  0  0  1  0  0
   -5.6428  -29.2543   51.9239 C   0  0  0  1  0  0
   -6.1184  -27.0319   52.7854 C   0  0  0  1  0  0
   -6.5543  -28.3371   52.4836 C   0  0  0  1  0  0
   -7.9932  -28.7395   52.7612 C   0  0  0  1  0  0
   -8.4970  -28.3767   54.1620 C   0  0  0  1  0  0
   -8.9978  -28.6215   51.6238 C   0  0  0  1  0  0
   -8.5543  -29.9869   52.0890 C   0  0  0  1  0  0
   -9.3305  -27.5058   54.2810 O   0  0  0  1  0  0
   -8.0128  -29.0385   55.2203 O   0  0  0  1  0  0
   -2.4957  -24.9332   48.7638 H   0  0
   -0.1772  -24.9386   52.6848 H   0  0
    0.2399  -26.5788   52.2460 H   0  0
   -0.7585  -26.6039   48.8096 H   0  0
    0.1732  -27.3852   50.0506 H   0  0
   -3.6412  -23.9654   52.0697 H   0  0
    1.7215  -25.2417   52.1123 H   0  0
   -2.4801  -25.4072   52.8259 H   0  0
   -1.7139  -26.8297   53.5199 H   0  0
   -2.7124  -27.4792   49.5448 H   0  0
   -1.6964  -28.6087   50.4017 H   0  0
   -6.6988  -22.7544   48.3243 H   0  0
   -5.9266  -23.1147   52.5571 H   0  0
    2.8074  -23.0905   47.7992 H   0  0
    3.9015  -24.1356   51.8040 H   0  0
   -5.2387  -22.1898   46.6459 H   0  0
   -6.0111  -23.7568   46.5655 H   0  0
   -4.5808  -23.4308   45.4916 H   0  0
    4.4176  -22.9883   49.6603 H   0  0
    1.7067  -26.0475   46.6914 H   0  0
    2.3036  -24.4488   46.2154 H   0  0
    0.8412  -25.1188   45.4285 H   0  0
    1.0924  -22.4339   46.7795 H   0  0
   -0.4433  -22.4920   47.6663 H   0  0
   -0.3634  -23.1049   45.9896 H   0  0
   -1.3329  -24.9836   48.3126 H   0  0
   -0.2962  -26.3305   47.8294 H   0  0
   -1.1728  -25.3948   46.5712 H   0  0
   -8.5029  -23.0327   50.2475 H   0  0
   -7.8766  -21.3969   50.2690 H   0  0
   -8.0532  -22.2878   51.8404 H   0  0
   -3.6207  -29.5798   51.2174 H   0  0
   -4.4703  -25.6301   52.7650 H   0  0
   -5.9640  -30.2723   51.7036 H   0  0
   -6.8127  -26.3202   53.2320 H   0  0
   -8.5130  -28.3374   50.6898 H   0  0
   -9.9926  -28.3735   51.9938 H   0  0
   -9.3124  -30.4673   52.7076 H   0  0
   -7.8314  -30.4305   51.4044 H   0  0
   -6.9719  -28.9102   55.1688 H   0  0
  1  2  2  0
  2  3  1  0
  2  4  1  0
  3  5  1  0
  4  6  1  0
  4  7  1  0
  4  8  1  0
  5  9  2  0
  5 10  1  0
  6 11  2  0
  6 12  1  0
  7 13  1  0
  8 14  1  0
  9 15  1  0
  9 16  1  0
 10 17  2  0
 11 18  1  0
 11 19  1  0
 12 20  2  0
 13 21  1  0
 14 21  1  0
 15 22  1  0
 16 23  2  0
 17 23  1  0
 18 24  2  0
 19 25  1  0
 19 26  1  0
 19 27  1  0
 20 24  1  0
 21 28  1  0
 23 29  1  0
 28 30  2  0
 28 31  1  0
 30 32  1  0
 31 33  2  0
 32 34  2  0
 33 34  1  0
 34 35  1  0
 35 36  1  0
 35 37  1  0
 35 38  1  0
 36 39  2  0
 36 40  1  0
 37 38  1  0
  3 41  1  0
  7 42  1  0
  7 43  1  0
  8 44  1  0
  8 45  1  0
 10 46  1  0
 12 47  1  0
 13 48  1  0
 13 49  1  0
 14 50  1  0
 14 51  1  0
 16 52  1  0
 17 53  1  0
 18 54  1  0
 20 55  1  0
 22 56  1  0
 22 57  1  0
 22 58  1  0
 24 59  1  0
 25 60  1  0
 25 61  1  0
 25 62  1  0
 26 63  1  0
 26 64  1  0
 26 65  1  0
 27 66  1  0
 27 67  1  0
 27 68  1  0
 29 69  1  0
 29 70  1  0
 29 71  1  0
 30 72  1  0
 31 73  1  0
 32 74  1  0
 33 75  1  0
 37 76  1  0
 37 77  1  0
 38 78  1  0
 38 79  1  0
 40 80  1  0
M  END
> <Name>
12

> <AbsoluteEnergy>
98.789

> <Clean Energy>
142.836

> <Column 1>
12

> <ConfNumber>
87

> <Filter_Pass>
Failed

> <IC50_nM>
73.84

> <LogP>
6.59

> <MOL_NUMBER>
9

> <QSAR_Score_pIC50>
7.132

> <RelativeEnergy>
13.5851

> <SMILES>
COc1cc(C)ccc1NC(=O)C1(c2ccccc2C(C)(C)C)CCN(c2ccc(C3(C(=O)O)CC3)cc2)CC1

> <Toxicity_Alerts>
DILI, Basic N (hERG Warning)

> <Type>
Analog

> <POSE_NUMBER>
9

> <LibDockScore>
130.2445

> <HotSpots>
-5.53,-22.92,48.98,A,33,16
3.07,-24.52,50.38,A,43,24
-9.53,-30.12,52.78,A,62,37

$$$$
12
  SciTegic05082609073D

 80 84  0  0  0  0            999 V2000
   -1.8555  -23.3670   50.7606 O   0  0  0  1  0  0
   -1.8233  -24.4912   50.3091 C   0  0  0  1  0  0
   -0.7620  -24.9034   49.5161 N   0  0  0  1  0  0
   -2.9783  -25.4418   50.6442 C   0  0  0  1  0  0
    0.5654  -24.5137   49.6453 C   0  0  0  1  0  0
   -4.3441  -24.7705   50.3282 C   0  0  0  1  0  0
   -2.8958  -26.9087   50.1047 C   0  0  0  1  0  0
   -2.7084  -25.6709   52.1806 C   0  0  0  1  0  0
    1.2519  -24.4815   50.8898 C   0  0  0  1  0  0
    1.2492  -24.1459   48.4668 C   0  0  0  1  0  0
   -4.7296  -24.0838   49.0989 C   0  0  0  1  0  0
   -5.3133  -24.8245   51.3718 C   0  0  0  1  0  0
   -4.0761  -27.7772   50.5628 C   0  0  0  1  0  0
   -3.2886  -26.9551   52.8441 C   0  0  0  1  0  0
    0.6216  -24.8886   51.9896 O   0  0  0  1  0  0
    2.5947  -24.0321   50.9192 C   0  0  0  1  0  0
    2.5829  -23.7169   48.5124 C   0  0  0  1  0  0
   -6.0185  -23.4759   49.0734 C   0  0  0  1  0  0
   -3.9122  -23.9048   47.7901 C   0  0  0  1  0  0
   -6.5796  -24.2516   51.2763 C   0  0  0  1  0  0
   -4.3220  -27.6826   52.0345 N   0  0  0  1  0  0
    1.2611  -24.9629   53.2677 C   0  0  0  1  0  0
    3.2598  -23.6509   49.7402 C   0  0  0  1  0  0
   -6.9300  -23.5642   50.1251 C   0  0  0  1  0  0
   -3.0858  -22.5980   47.8206 C   0  0  0  1  0  0
   -4.8255  -23.7920   46.5243 C   0  0  0  1  0  0
   -2.9953  -25.0812   47.4175 C   0  0  0  1  0  0
   -5.4706  -28.2306   52.6181 C   0  0  0  1  0  0
    4.6779  -23.1783   49.7806 C   0  0  0  1  0  0
   -6.7385  -28.0888   52.0027 C   0  0  0  1  0  0
   -5.4068  -28.9342   53.8461 C   0  0  0  1  0  0
   -7.9017  -28.5660   52.6243 C   0  0  0  1  0  0
   -6.5709  -29.4091   54.4698 C   0  0  0  1  0  0
   -7.8250  -29.2043   53.8717 C   0  0  0  1  0  0
   -9.0861  -29.6522   54.5676 C   0  0  0  1  0  0
   -9.2989  -28.9147   55.8803 C   0  0  0  1  0  0
   -9.5411  -31.0989   54.4458 C   0  0  0  1  0  0
  -10.3119  -30.0089   53.7421 C   0  0  0  1  0  0
   -9.7903  -29.5006   56.8172 O   0  0  0  1  0  0
   -8.9261  -27.6384   55.9679 O   0  0  0  1  0  0
   -0.9882  -25.5894   48.7268 H   0  0
   -2.8748  -26.8860   49.0151 H   0  0
   -1.9671  -27.3635   50.4494 H   0  0
   -1.6303  -25.6647   52.3411 H   0  0
   -3.0885  -24.8072   52.7262 H   0  0
    0.7332  -24.1961   47.5080 H   0  0
   -5.0496  -25.3419   52.2942 H   0  0
   -4.9753  -27.4637   50.0325 H   0  0
   -3.8758  -28.8168   50.3034 H   0  0
   -3.7285  -26.6849   53.8041 H   0  0
   -2.4677  -27.6407   53.0542 H   0  0
    3.1217  -23.9808   51.8720 H   0  0
    3.0952  -23.4341   47.5928 H   0  0
   -6.3067  -22.9127   48.1858 H   0  0
   -7.2882  -24.3432   52.0994 H   0  0
    1.6465  -23.9558   53.4272 H   0  0
    2.1254  -25.6034   53.0918 H   0  0
    0.6287  -25.3128   54.0836 H   0  0
   -7.9108  -23.0960   50.0423 H   0  0
   -2.4068  -22.6329   48.6726 H   0  0
   -3.7668  -21.7558   47.9432 H   0  0
   -2.5188  -22.4876   46.8962 H   0  0
   -5.4902  -22.9389   46.6600 H   0  0
   -5.4280  -24.6980   46.4583 H   0  0
   -4.2255  -23.6674   45.6229 H   0  0
   -3.6310  -25.9630   47.3372 H   0  0
   -2.3174  -25.2307   48.2578 H   0  0
   -2.4478  -24.9006   46.4925 H   0  0
    5.2255  -23.9893   50.2608 H   0  0
    4.6704  -22.3424   50.4801 H   0  0
    5.0899  -22.9099   48.8078 H   0  0
   -6.8113  -27.6011   51.0306 H   0  0
   -4.4381  -29.1095   54.3140 H   0  0
   -8.8685  -28.4406   52.1368 H   0  0
   -6.5015  -29.9380   55.4204 H   0  0
  -10.0521  -31.4348   55.3481 H   0  0
   -8.9121  -31.6584   53.7534 H   0  0
  -10.0951  -29.9881   52.6741 H   0  0
  -11.2339  -29.7634   54.2692 H   0  0
   -9.4394  -27.1482   55.1941 H   0  0
  1  2  2  0
  2  3  1  0
  2  4  1  0
  3  5  1  0
  4  6  1  0
  4  7  1  0
  4  8  1  0
  5  9  2  0
  5 10  1  0
  6 11  2  0
  6 12  1  0
  7 13  1  0
  8 14  1  0
  9 15  1  0
  9 16  1  0
 10 17  2  0
 11 18  1  0
 11 19  1  0
 12 20  2  0
 13 21  1  0
 14 21  1  0
 15 22  1  0
 16 23  2  0
 17 23  1  0
 18 24  2  0
 19 25  1  0
 19 26  1  0
 19 27  1  0
 20 24  1  0
 21 28  1  0
 23 29  1  0
 28 30  2  0
 28 31  1  0
 30 32  1  0
 31 33  2  0
 32 34  2  0
 33 34  1  0
 34 35  1  0
 35 36  1  0
 35 37  1  0
 35 38  1  0
 36 39  2  0
 36 40  1  0
 37 38  1  0
  3 41  1  0
  7 42  1  0
  7 43  1  0
  8 44  1  0
  8 45  1  0
 10 46  1  0
 12 47  1  0
 13 48  1  0
 13 49  1  0
 14 50  1  0
 14 51  1  0
 16 52  1  0
 17 53  1  0
 18 54  1  0
 20 55  1  0
 22 56  1  0
 22 57  1  0
 22 58  1  0
 24 59  1  0
 25 60  1  0
 25 61  1  0
 25 62  1  0
 26 63  1  0
 26 64  1  0
 26 65  1  0
 27 66  1  0
 27 67  1  0
 27 68  1  0
 29 69  1  0
 29 70  1  0
 29 71  1  0
 30 72  1  0
 31 73  1  0
 32 74  1  0
 33 75  1  0
 37 76  1  0
 37 77  1  0
 38 78  1  0
 38 79  1  0
 40 80  1  0
M  END
> <Name>
12

> <AbsoluteEnergy>
93.4059

> <Clean Energy>
142.836

> <Column 1>
12

> <ConfNumber>
35

> <Filter_Pass>
Failed

> <IC50_nM>
73.84

> <LogP>
6.59

> <MOL_NUMBER>
9

> <QSAR_Score_pIC50>
7.132

> <RelativeEnergy>
8.20198

> <SMILES>
COc1cc(C)ccc1NC(=O)C1(c2ccccc2C(C)(C)C)CCN(c2ccc(C3(C(=O)O)CC3)cc2)CC1

> <Toxicity_Alerts>
DILI, Basic N (hERG Warning)

> <Type>
Analog

> <POSE_NUMBER>
10

> <LibDockScore>
130.0689

> <HotSpots>
2.67,-23.92,48.98,A,32,16
-2.53,-22.32,48.19,A,29,25
-7.93,-28.32,52.38,A,59,32

$$$$
12
  SciTegic05082609073D

 80 84  0  0  0  0            999 V2000
   -1.6833  -23.2031   51.3599 O   0  0  0  1  0  0
   -1.7891  -24.1242   50.5815 C   0  0  0  1  0  0
   -2.8218  -24.1456   49.6535 N   0  0  0  1  0  0
   -0.7667  -25.2731   50.6805 C   0  0  0  1  0  0
   -4.1319  -23.7067   49.8095 C   0  0  0  1  0  0
    0.6549  -24.7859   50.2981 C   0  0  0  1  0  0
   -1.0123  -26.6531   49.9846 C   0  0  0  1  0  0
   -0.9017  -25.6969   52.1843 C   0  0  0  1  0  0
   -4.9383  -23.1952   48.7583 C   0  0  0  1  0  0
   -4.6699  -23.7913   51.1144 C   0  0  0  1  0  0
    1.1723  -24.6014   48.9506 C   0  0  0  1  0  0
    1.5466  -24.5122   51.3783 C   0  0  0  1  0  0
   -2.2488  -27.5020   50.3800 C   0  0  0  1  0  0
   -2.2899  -26.2039   52.6160 C   0  0  0  1  0  0
   -4.4584  -23.1781   47.5170 O   0  0  0  1  0  0
   -6.2428  -22.7327   49.0621 C   0  0  0  1  0  0
   -5.9651  -23.3411   51.3932 C   0  0  0  1  0  0
    2.5595  -24.3120   48.8156 C   0  0  0  1  0  0
    0.4297  -24.6832   47.5961 C   0  0  0  1  0  0
    2.8867  -24.1668   51.1911 C   0  0  0  1  0  0
   -2.9466  -27.1453   51.6588 N   0  0  0  1  0  0
   -5.2061  -22.6835   46.4026 C   0  0  0  1  0  0
   -6.7567  -22.8011   50.3693 C   0  0  0  1  0  0
    3.4013  -24.0864   49.9042 C   0  0  0  1  0  0
    0.2942  -23.2692   46.9448 C   0  0  0  1  0  0
   -1.0362  -25.1607   47.6148 C   0  0  0  1  0  0
    1.2408  -25.5611   46.6129 C   0  0  0  1  0  0
   -4.2249  -27.6564   51.9286 C   0  0  0  1  0  0
   -8.1332  -22.3094   50.6784 C   0  0  0  1  0  0
   -4.5225  -29.0249   51.7244 C   0  0  0  1  0  0
   -5.2640  -26.8186   52.4043 C   0  0  0  1  0  0
   -5.8066  -29.5353   51.9799 C   0  0  0  1  0  0
   -6.5450  -27.3291   52.6625 C   0  0  0  1  0  0
   -6.8245  -28.6905   52.4534 C   0  0  0  1  0  0
   -8.2107  -29.2348   52.7337 C   0  0  0  1  0  0
   -8.8894  -29.8775   51.5217 C   0  0  0  1  0  0
   -9.0852  -28.4745   53.7256 C   0  0  0  1  0  0
   -8.5071  -29.8158   54.1126 C   0  0  0  1  0  0
   -8.7699  -31.0728   51.3433 O   0  0  0  1  0  0
   -9.6003  -29.1197   50.6820 O   0  0  0  1  0  0
   -2.5779  -24.5524   48.6944 H   0  0
   -1.0548  -26.4830   48.9088 H   0  0
   -0.1246  -27.2676   50.1343 H   0  0
   -0.6351  -24.8458   52.8110 H   0  0
   -0.1694  -26.4770   52.3921 H   0  0
   -4.0654  -24.2144   51.9167 H   0  0
    1.1638  -24.5757   52.3969 H   0  0
   -2.9757  -27.4476   49.5696 H   0  0
   -1.9441  -28.5468   50.4394 H   0  0
   -2.1954  -26.7009   53.5815 H   0  0
   -2.9458  -25.3459   52.7632 H   0  0
   -6.8603  -22.3156   48.2666 H   0  0
   -6.3591  -23.4102   52.4071 H   0  0
    2.9842  -24.2644   47.8129 H   0  0
    3.5250  -23.9615   52.0505 H   0  0
   -5.4752  -21.6691   46.6971 H   0  0
   -6.1256  -23.2685   46.4236 H   0  0
   -4.6927  -22.7280   45.4421 H   0  0
    4.4534  -23.8492   49.7462 H   0  0
    1.2910  -22.8565   46.7894 H   0  0
   -0.2581  -22.6203   47.6244 H   0  0
   -0.2305  -23.3425   45.9922 H   0  0
   -1.5626  -24.4805   48.2843 H   0  0
   -1.0239  -26.1419   48.0893 H   0  0
   -1.4899  -25.1915   46.6242 H   0  0
    1.3517  -26.5633   47.0268 H   0  0
    2.2262  -25.1209   46.4603 H   0  0
    0.7174  -25.6187   45.6585 H   0  0
   -8.7825  -22.8665   50.0030 H   0  0
   -8.1378  -21.2733   50.3399 H   0  0
   -8.4239  -22.4128   51.7238 H   0  0
   -3.7422  -29.6945   51.3627 H   0  0
   -5.0648  -25.7602   52.5724 H   0  0
   -6.0140  -30.5918   51.8099 H   0  0
   -7.3287  -26.6654   53.0277 H   0  0
  -10.1414  -28.5510   53.4673 H   0  0
   -8.5401  -27.6523   54.1893 H   0  0
   -7.6545  -29.7081   54.7831 H   0  0
   -9.2551  -30.6069   54.0596 H   0  0
   -8.9335  -28.3726   50.3661 H   0  0
  1  2  2  0
  2  3  1  0
  2  4  1  0
  3  5  1  0
  4  6  1  0
  4  7  1  0
  4  8  1  0
  5  9  2  0
  5 10  1  0
  6 11  2  0
  6 12  1  0
  7 13  1  0
  8 14  1  0
  9 15  1  0
  9 16  1  0
 10 17  2  0
 11 18  1  0
 11 19  1  0
 12 20  2  0
 13 21  1  0
 14 21  1  0
 15 22  1  0
 16 23  2  0
 17 23  1  0
 18 24  2  0
 19 25  1  0
 19 26  1  0
 19 27  1  0
 20 24  1  0
 21 28  1  0
 23 29  1  0
 28 30  2  0
 28 31  1  0
 30 32  1  0
 31 33  2  0
 32 34  2  0
 33 34  1  0
 34 35  1  0
 35 36  1  0
 35 37  1  0
 35 38  1  0
 36 39  2  0
 36 40  1  0
 37 38  1  0
  3 41  1  0
  7 42  1  0
  7 43  1  0
  8 44  1  0
  8 45  1  0
 10 46  1  0
 12 47  1  0
 13 48  1  0
 13 49  1  0
 14 50  1  0
 14 51  1  0
 16 52  1  0
 17 53  1  0
 18 54  1  0
 20 55  1  0
 22 56  1  0
 22 57  1  0
 22 58  1  0
 24 59  1  0
 25 60  1  0
 25 61  1  0
 25 62  1  0
 26 63  1  0
 26 64  1  0
 26 65  1  0
 27 66  1  0
 27 67  1  0
 27 68  1  0
 29 69  1  0
 29 70  1  0
 29 71  1  0
 30 72  1  0
 31 73  1  0
 32 74  1  0
 33 75  1  0
 37 76  1  0
 37 77  1  0
 38 78  1  0
 38 79  1  0
 40 80  1  0
M  END
> <Name>
12

> <AbsoluteEnergy>
92.7178

> <Clean Energy>
142.836

> <Column 1>
12

> <ConfNumber>
31

> <Filter_Pass>
Failed

> <IC50_nM>
73.84

> <LogP>
6.59

> <MOL_NUMBER>
9

> <QSAR_Score_pIC50>
7.132

> <RelativeEnergy>
7.51392

> <SMILES>
COc1cc(C)ccc1NC(=O)C1(c2ccccc2C(C)(C)C)CCN(c2ccc(C3(C(=O)O)CC3)cc2)CC1

> <Toxicity_Alerts>
DILI, Basic N (hERG Warning)

> <Type>
Analog

> <POSE_NUMBER>
11

> <LibDockScore>
128.3665

> <HotSpots>
-6.13,-22.12,49.98,A,41,16
2.67,-22.92,49.98,A,39,24
0.27,-22.52,46.78,A,23,25

$$$$
12
  SciTegic05082609073D

 80 84  0  0  0  0            999 V2000
   -2.9088  -25.8956   48.5848 O   0  0  0  1  0  0
   -2.4715  -25.0781   49.3643 C   0  0  0  1  0  0
   -2.6412  -23.7183   49.1208 N   0  0  0  1  0  0
   -1.7796  -25.5621   50.6512 C   0  0  0  1  0  0
   -3.5082  -23.1730   48.1805 C   0  0  0  1  0  0
   -0.3482  -25.0169   50.8189 C   0  0  0  1  0  0
   -2.8270  -24.9300   51.6964 C   0  0  0  1  0  0
   -1.7413  -27.1445   50.7719 C   0  0  0  1  0  0
   -4.9195  -23.1679   48.3635 C   0  0  0  1  0  0
   -2.9559  -22.5926   47.0184 C   0  0  0  1  0  0
    0.6133  -24.7254   49.7650 C   0  0  0  1  0  0
    0.0491  -24.7784   52.1604 C   0  0  0  1  0  0
   -3.1878  -25.7359   52.9586 C   0  0  0  1  0  0
   -2.1115  -27.7663   52.1305 C   0  0  0  1  0  0
   -5.4334  -23.6593   49.4915 O   0  0  0  1  0  0
   -5.7387  -22.6227   47.3477 C   0  0  0  1  0  0
   -3.7843  -22.0467   46.0276 C   0  0  0  1  0  0
    1.7952  -24.0291   50.1517 C   0  0  0  1  0  0
    0.5194  -25.0810   48.2565 C   0  0  0  1  0  0
    1.2493  -24.1528   52.4938 C   0  0  0  1  0  0
   -3.3588  -27.1350   52.5579 N   0  0  0  1  0  0
   -6.8293  -23.5976   49.7995 C   0  0  0  1  0  0
   -5.1795  -22.0659   46.1832 C   0  0  0  1  0  0
    2.1137  -23.7510   51.4833 C   0  0  0  1  0  0
   -0.1865  -26.4203   47.9524 C   0  0  0  1  0  0
    1.9281  -25.3071   47.6166 C   0  0  0  1  0  0
   -0.1326  -23.9471   47.4283 C   0  0  0  1  0  0
   -4.5886  -27.7461   52.4347 C   0  0  0  1  0  0
   -6.0535  -21.4966   45.1140 C   0  0  0  1  0  0
   -5.7396  -26.9350   52.4837 C   0  0  0  1  0  0
   -4.7241  -29.1377   52.2501 C   0  0  0  1  0  0
   -7.0101  -27.5005   52.3435 C   0  0  0  1  0  0
   -6.0059  -29.7071   52.1244 C   0  0  0  1  0  0
   -7.1533  -28.8891   52.1710 C   0  0  0  1  0  0
   -8.5419  -29.4723   52.0453 C   0  0  0  1  0  0
   -9.3161  -29.4328   53.3562 C   0  0  0  1  0  0
   -8.8244  -30.5694   51.0292 C   0  0  0  1  0  0
   -9.3254  -29.1682   50.7778 C   0  0  0  1  0  0
   -9.9742  -30.3916   53.6916 O   0  0  0  1  0  0
   -9.2406  -28.3255   54.0971 O   0  0  0  1  0  0
   -2.0573  -23.0376   49.7044 H   0  0
   -2.4455  -23.9601   52.0155 H   0  0
   -3.7519  -24.7118   51.1625 H   0  0
   -0.7409  -27.4849   50.5048 H   0  0
   -2.4063  -27.5616   50.0157 H   0  0
   -1.8738  -22.5685   46.8899 H   0  0
   -0.6131  -25.0983   52.9649 H   0  0
   -4.1183  -25.3588   53.3830 H   0  0
   -2.3810  -25.6581   53.6874 H   0  0
   -2.2604  -28.8401   52.0168 H   0  0
   -1.3256  -27.5619   52.8576 H   0  0
   -6.8218  -22.6341   47.4692 H   0  0
   -3.3436  -21.6059   45.1334 H   0  0
    2.4822  -23.6983   49.3728 H   0  0
    1.5074  -23.9803   53.5387 H   0  0
   -7.3074  -24.0804   48.9472 H   0  0
   -7.0665  -22.5360   49.7298 H   0  0
   -7.1140  -24.0375   50.7553 H   0  0
    3.0348  -23.2220   51.7278 H   0  0
   -1.1877  -26.3603   48.3792 H   0  0
    0.3620  -27.2001   48.4807 H   0  0
   -0.2269  -26.6241   46.8824 H   0  0
    2.4224  -26.1171   48.1529 H   0  0
    2.5119  -24.3951   47.7414 H   0  0
    1.8351  -25.5549   46.5592 H   0  0
    0.4647  -23.0441   47.5545 H   0  0
   -1.1319  -23.7654   47.8239 H   0  0
   -0.1866  -24.2211   46.3747 H   0  0
   -6.6579  -20.7452   45.6221 H   0  0
   -6.7235  -22.3120   44.8415 H   0  0
   -5.5117  -21.0931   44.2586 H   0  0
   -5.6386  -25.8598   52.6319 H   0  0
   -3.8383  -29.7713   52.2048 H   0  0
   -7.8937  -26.8627   52.3679 H   0  0
   -6.1113  -30.7837   51.9906 H   0  0
   -9.6249  -31.2288   51.3647 H   0  0
   -7.9425  -30.7952   50.4298 H   0  0
   -8.7115  -28.6472   50.0432 H   0  0
  -10.3930  -29.0802   50.9794 H   0  0
   -9.5583  -27.5455   53.4701 H   0  0
  1  2  2  0
  2  3  1  0
  2  4  1  0
  3  5  1  0
  4  6  1  0
  4  7  1  0
  4  8  1  0
  5  9  2  0
  5 10  1  0
  6 11  2  0
  6 12  1  0
  7 13  1  0
  8 14  1  0
  9 15  1  0
  9 16  1  0
 10 17  2  0
 11 18  1  0
 11 19  1  0
 12 20  2  0
 13 21  1  0
 14 21  1  0
 15 22  1  0
 16 23  2  0
 17 23  1  0
 18 24  2  0
 19 25  1  0
 19 26  1  0
 19 27  1  0
 20 24  1  0
 21 28  1  0
 23 29  1  0
 28 30  2  0
 28 31  1  0
 30 32  1  0
 31 33  2  0
 32 34  2  0
 33 34  1  0
 34 35  1  0
 35 36  1  0
 35 37  1  0
 35 38  1  0
 36 39  2  0
 36 40  1  0
 37 38  1  0
  3 41  1  0
  7 42  1  0
  7 43  1  0
  8 44  1  0
  8 45  1  0
 10 46  1  0
 12 47  1  0
 13 48  1  0
 13 49  1  0
 14 50  1  0
 14 51  1  0
 16 52  1  0
 17 53  1  0
 18 54  1  0
 20 55  1  0
 22 56  1  0
 22 57  1  0
 22 58  1  0
 24 59  1  0
 25 60  1  0
 25 61  1  0
 25 62  1  0
 26 63  1  0
 26 64  1  0
 26 65  1  0
 27 66  1  0
 27 67  1  0
 27 68  1  0
 29 69  1  0
 29 70  1  0
 29 71  1  0
 30 72  1  0
 31 73  1  0
 32 74  1  0
 33 75  1  0
 37 76  1  0
 37 77  1  0
 38 78  1  0
 38 79  1  0
 40 80  1  0
M  END
> <Name>
12

> <AbsoluteEnergy>
99.4005

> <Clean Energy>
142.836

> <Column 1>
12

> <ConfNumber>
93

> <Filter_Pass>
Failed

> <IC50_nM>
73.84

> <LogP>
6.59

> <MOL_NUMBER>
9

> <QSAR_Score_pIC50>
7.132

> <RelativeEnergy>
14.1966

> <SMILES>
COc1cc(C)ccc1NC(=O)C1(c2ccccc2C(C)(C)C)CCN(c2ccc(C3(C(=O)O)CC3)cc2)CC1

> <Toxicity_Alerts>
DILI, Basic N (hERG Warning)

> <Type>
Analog

> <POSE_NUMBER>
12

> <LibDockScore>
128.1702

> <HotSpots>
1.67,-24.32,50.98,A,50,20
-7.33,-24.12,50.38,A,44,22
0.27,-24.92,46.38,A,19,26

$$$$
12
  SciTegic05082609073D

 80 84  0  0  0  0            999 V2000
   -1.6871  -23.6588   51.7405 O   0  0  0  1  0  0
   -1.7260  -24.5031   50.8702 C   0  0  0  1  0  0
   -2.7405  -24.4800   49.9286 N   0  0  0  1  0  0
   -0.6377  -25.5880   50.8655 C   0  0  0  1  0  0
   -3.9749  -23.8965   50.0980 C   0  0  0  1  0  0
    0.7547  -25.0124   50.4794 C   0  0  0  1  0  0
   -0.7047  -26.0735   52.3595 C   0  0  0  1  0  0
   -0.9062  -26.9366   50.1235 C   0  0  0  1  0  0
   -4.7237  -23.4518   48.9820 C   0  0  0  1  0  0
   -4.5001  -23.7822   51.3993 C   0  0  0  1  0  0
    1.1475  -24.4216   49.2045 C   0  0  0  1  0  0
    1.7521  -25.0601   51.4985 C   0  0  0  1  0  0
   -2.0846  -26.5655   52.8393 C   0  0  0  1  0  0
   -2.1791  -27.7381   50.5194 C   0  0  0  1  0  0
   -4.1952  -23.5631   47.7627 O   0  0  0  1  0  0
   -6.0078  -22.9008   49.2051 C   0  0  0  1  0  0
   -5.7769  -23.2428   51.6011 C   0  0  0  1  0  0
    2.4008  -23.7450   49.1583 C   0  0  0  1  0  0
    0.3781  -24.4311   47.8608 C   0  0  0  1  0  0
    3.0021  -24.4497   51.3732 C   0  0  0  1  0  0
   -2.8185  -27.3768   51.8274 N   0  0  0  1  0  0
   -4.9161  -23.2130   46.5773 C   0  0  0  1  0  0
   -6.5370  -22.7978   50.5056 C   0  0  0  1  0  0
    3.3149  -23.7613   50.2108 C   0  0  0  1  0  0
    1.2409  -24.9836   46.6792 C   0  0  0  1  0  0
   -0.0116  -23.0023   47.4198 C   0  0  0  1  0  0
   -0.8258  -25.3950   47.8280 C   0  0  0  1  0  0
   -4.1207  -27.7785   52.0950 C   0  0  0  1  0  0
   -7.8955  -22.2222   50.7332 C   0  0  0  1  0  0
   -4.4218  -29.1338   52.3592 C   0  0  0  1  0  0
   -5.1667  -26.8307   52.1111 C   0  0  0  1  0  0
   -5.7495  -29.5371   52.5985 C   0  0  0  1  0  0
   -6.4909  -27.2364   52.3448 C   0  0  0  1  0  0
   -6.7941  -28.5918   52.5808 C   0  0  0  1  0  0
   -8.2346  -29.0180   52.8105 C   0  0  0  1  0  0
   -8.8056  -28.6229   54.1762 C   0  0  0  1  0  0
   -9.1919  -28.9588   51.6285 C   0  0  0  1  0  0
   -8.7395  -30.2984   52.1559 C   0  0  0  1  0  0
   -9.3983  -27.5721   54.2853 O   0  0  0  1  0  0
   -8.6462  -29.4534   55.2141 O   0  0  0  1  0  0
   -2.5484  -24.9561   48.9898 H   0  0
   -0.3852  -25.2563   53.0062 H   0  0
    0.0163  -26.8795   52.4958 H   0  0
   -0.9512  -26.7340   49.0534 H   0  0
   -0.0401  -27.5831   50.2649 H   0  0
   -3.9105  -24.1150   52.2535 H   0  0
    1.5278  -25.5988   52.4191 H   0  0
   -2.6947  -25.7025   53.1060 H   0  0
   -1.9518  -27.1649   53.7400 H   0  0
   -2.9219  -27.6181   49.7308 H   0  0
   -1.9273  -28.7983   50.5433 H   0  0
   -6.5963  -22.5507   48.3570 H   0  0
   -6.1821  -23.1679   52.6102 H   0  0
    2.6570  -23.1881   48.2570 H   0  0
    3.7274  -24.5141   52.1843 H   0  0
   -5.2160  -22.1787   46.7456 H   0  0
   -5.8233  -23.8148   46.6317 H   0  0
   -4.3680  -23.3516   45.6454 H   0  0
    4.2667  -23.2378   50.1208 H   0  0
    1.5505  -25.9980   46.9306 H   0  0
    2.1297  -24.3594   46.5874 H   0  0
    0.6737  -24.9781   45.7484 H   0  0
    0.8979  -22.4107   47.3153 H   0  0
   -0.6360  -22.5577   48.1947 H   0  0
   -0.5515  -23.0300   46.4733 H   0  0
   -1.4985  -25.1032   48.6345 H   0  0
   -0.4483  -26.3948   48.0422 H   0  0
   -1.3360  -25.3684   46.8652 H   0  0
   -8.5593  -22.8293   50.1176 H   0  0
   -7.8561  -21.2329   50.2773 H   0  0
   -8.2013  -22.1921   51.7790 H   0  0
   -3.6204  -29.8723   52.3779 H   0  0
   -4.9453  -25.7771   51.9410 H   0  0
   -5.9702  -30.5856   52.7984 H   0  0
   -7.2909  -26.4961   52.3436 H   0  0
   -8.6737  -28.6931   50.7071 H   0  0
  -10.2068  -28.7221   51.9481 H   0  0
   -9.5128  -30.7764   52.7572 H   0  0
   -7.9785  -30.7466   51.5171 H   0  0
   -7.6093  -29.6013   55.2878 H   0  0
  1  2  2  0
  2  3  1  0
  2  4  1  0
  3  5  1  0
  4  6  1  0
  4  7  1  0
  4  8  1  0
  5  9  2  0
  5 10  1  0
  6 11  2  0
  6 12  1  0
  7 13  1  0
  8 14  1  0
  9 15  1  0
  9 16  1  0
 10 17  2  0
 11 18  1  0
 11 19  1  0
 12 20  2  0
 13 21  1  0
 14 21  1  0
 15 22  1  0
 16 23  2  0
 17 23  1  0
 18 24  2  0
 19 25  1  0
 19 26  1  0
 19 27  1  0
 20 24  1  0
 21 28  1  0
 23 29  1  0
 28 30  2  0
 28 31  1  0
 30 32  1  0
 31 33  2  0
 32 34  2  0
 33 34  1  0
 34 35  1  0
 35 36  1  0
 35 37  1  0
 35 38  1  0
 36 39  2  0
 36 40  1  0
 37 38  1  0
  3 41  1  0
  7 42  1  0
  7 43  1  0
  8 44  1  0
  8 45  1  0
 10 46  1  0
 12 47  1  0
 13 48  1  0
 13 49  1  0
 14 50  1  0
 14 51  1  0
 16 52  1  0
 17 53  1  0
 18 54  1  0
 20 55  1  0
 22 56  1  0
 22 57  1  0
 22 58  1  0
 24 59  1  0
 25 60  1  0
 25 61  1  0
 25 62  1  0
 26 63  1  0
 26 64  1  0
 26 65  1  0
 27 66  1  0
 27 67  1  0
 27 68  1  0
 29 69  1  0
 29 70  1  0
 29 71  1  0
 30 72  1  0
 31 73  1  0
 32 74  1  0
 33 75  1  0
 37 76  1  0
 37 77  1  0
 38 78  1  0
 38 79  1  0
 40 80  1  0
M  END
> <Name>
12

> <AbsoluteEnergy>
98.789

> <Clean Energy>
142.836

> <Column 1>
12

> <ConfNumber>
87

> <Filter_Pass>
Failed

> <IC50_nM>
73.84

> <LogP>
6.59

> <MOL_NUMBER>
9

> <QSAR_Score_pIC50>
7.132

> <RelativeEnergy>
13.5851

> <SMILES>
COc1cc(C)ccc1NC(=O)C1(c2ccccc2C(C)(C)C)CCN(c2ccc(C3(C(=O)O)CC3)cc2)CC1

> <Toxicity_Alerts>
DILI, Basic N (hERG Warning)

> <Type>
Analog

> <POSE_NUMBER>
13

> <LibDockScore>
125.7142

> <HotSpots>
1.67,-24.32,50.98,A,50,12
0.27,-22.52,46.78,A,23,25
-7.13,-31.92,50.98,A,49,37

$$$$
12
  SciTegic05082609073D

 80 84  0  0  0  0            999 V2000
   -3.8772  -25.9237   49.5420 O   0  0  0  1  0  0
   -2.8601  -25.3109   49.7755 C   0  0  0  1  0  0
   -2.0278  -25.7591   50.7948 N   0  0  0  1  0  0
   -2.5726  -24.0028   49.0101 C   0  0  0  1  0  0
   -2.3126  -26.8690   51.5869 C   0  0  0  1  0  0
   -1.4217  -24.1195   47.9683 C   0  0  0  1  0  0
   -2.2800  -22.9316   50.1555 C   0  0  0  1  0  0
   -3.8994  -23.4137   48.3757 C   0  0  0  1  0  0
   -1.6275  -27.0291   52.8205 C   0  0  0  1  0  0
   -3.2996  -27.8108   51.2172 C   0  0  0  1  0  0
   -1.2553  -25.1104   46.9074 C   0  0  0  1  0  0
   -0.4028  -23.1266   48.0801 C   0  0  0  1  0  0
   -3.3456  -22.8557   51.2855 C   0  0  0  1  0  0
   -4.8776  -22.7280   49.3814 C   0  0  0  1  0  0
   -0.6958  -26.1391   53.1591 O   0  0  0  1  0  0
   -1.9833  -28.1023   53.6715 C   0  0  0  1  0  0
   -3.6283  -28.8737   52.0683 C   0  0  0  1  0  0
   -0.0201  -25.1078   46.1995 C   0  0  0  1  0  0
   -2.2587  -26.1893   46.4325 C   0  0  0  1  0  0
    0.7611  -23.1296   47.3106 C   0  0  0  1  0  0
   -4.6571  -23.3015   50.7379 N   0  0  0  1  0  0
    0.1707  -26.3214   54.2842 C   0  0  0  1  0  0
   -2.9807  -29.0191   53.3034 C   0  0  0  1  0  0
    0.9649  -24.1408   46.3839 C   0  0  0  1  0  0
   -2.3424  -27.3455   47.4515 C   0  0  0  1  0  0
   -3.6505  -25.6257   46.0617 C   0  0  0  1  0  0
   -1.8316  -26.8876   45.0972 C   0  0  0  1  0  0
   -5.4477  -24.3016   51.3166 C   0  0  0  1  0  0
   -3.3549  -30.1372   54.2206 C   0  0  0  1  0  0
   -6.7181  -24.6257   50.7836 C   0  0  0  1  0  0
   -4.9781  -25.0764   52.4062 C   0  0  0  1  0  0
   -7.3919  -25.7886   51.1853 C   0  0  0  1  0  0
   -5.6398  -26.2518   52.7852 C   0  0  0  1  0  0
   -6.8234  -26.6500   52.1390 C   0  0  0  1  0  0
   -7.4512  -27.9958   52.4540 C   0  0  0  1  0  0
   -7.8448  -28.1712   53.9131 C   0  0  0  1  0  0
   -8.2450  -28.7952   51.4276 C   0  0  0  1  0  0
   -6.8309  -29.1983   51.7553 C   0  0  0  1  0  0
   -7.1298  -28.8310   54.6304 O   0  0  0  1  0  0
   -8.9574  -27.6032   54.3700 O   0  0  0  1  0  0
   -1.1205  -25.2232   50.9807 H   0  0
   -1.3134  -23.1578   50.6056 H   0  0
   -2.1899  -21.9464   49.6979 H   0  0
   -3.6264  -22.6887   47.6089 H   0  0
   -4.4316  -24.2190   47.8695 H   0  0
   -3.8104  -27.7089   50.2597 H   0  0
   -0.5410  -22.3239   48.8045 H   0  0
   -3.0528  -23.5086   52.1078 H   0  0
   -3.4293  -21.8288   51.6413 H   0  0
   -5.9068  -22.9101   49.0721 H   0  0
   -4.6848  -21.6554   49.4037 H   0  0
   -1.4746  -28.2190   54.6284 H   0  0
   -4.3917  -29.5917   51.7688 H   0  0
    0.1639  -25.9027   45.4768 H   0  0
    1.5048  -22.3428   47.4370 H   0  0
    0.6453  -27.2851   54.0992 H   0  0
   -0.5110  -26.4640   55.1227 H   0  0
    0.8881  -25.5177   54.4500 H   0  0
    1.8877  -24.1784   45.8050 H   0  0
   -2.6647  -26.9467   48.4134 H   0  0
   -1.3540  -27.7913   47.5627 H   0  0
   -3.0513  -28.0981   47.1064 H   0  0
   -3.5071  -24.8859   45.2741 H   0  0
   -4.0459  -25.1190   46.9421 H   0  0
   -4.3256  -26.4159   45.7332 H   0  0
   -0.8536  -27.3416   45.2567 H   0  0
   -1.7349  -26.1157   44.3337 H   0  0
   -2.5607  -27.6394   44.7948 H   0  0
   -3.6357  -29.6501   55.1544 H   0  0
   -2.4222  -30.6699   54.4063 H   0  0
   -4.1396  -30.7876   53.8343 H   0  0
   -7.1790  -23.9629   50.0513 H   0  0
   -4.0931  -24.7547   52.9551 H   0  0
   -8.3644  -26.0260   50.7541 H   0  0
   -5.2326  -26.8642   53.5897 H   0  0
   -8.3042  -28.2722   50.4731 H   0  0
   -8.9725  -29.4495   51.9079 H   0  0
   -6.8015  -30.0694   52.4098 H   0  0
   -6.1332  -28.8910   50.9763 H   0  0
   -9.7192  -27.9682   53.7464 H   0  0
  1  2  2  0
  2  3  1  0
  2  4  1  0
  3  5  1  0
  4  6  1  0
  4  7  1  0
  4  8  1  0
  5  9  2  0
  5 10  1  0
  6 11  2  0
  6 12  1  0
  7 13  1  0
  8 14  1  0
  9 15  1  0
  9 16  1  0
 10 17  2  0
 11 18  1  0
 11 19  1  0
 12 20  2  0
 13 21  1  0
 14 21  1  0
 15 22  1  0
 16 23  2  0
 17 23  1  0
 18 24  2  0
 19 25  1  0
 19 26  1  0
 19 27  1  0
 20 24  1  0
 21 28  1  0
 23 29  1  0
 28 30  2  0
 28 31  1  0
 30 32  1  0
 31 33  2  0
 32 34  2  0
 33 34  1  0
 34 35  1  0
 35 36  1  0
 35 37  1  0
 35 38  1  0
 36 39  2  0
 36 40  1  0
 37 38  1  0
  3 41  1  0
  7 42  1  0
  7 43  1  0
  8 44  1  0
  8 45  1  0
 10 46  1  0
 12 47  1  0
 13 48  1  0
 13 49  1  0
 14 50  1  0
 14 51  1  0
 16 52  1  0
 17 53  1  0
 18 54  1  0
 20 55  1  0
 22 56  1  0
 22 57  1  0
 22 58  1  0
 24 59  1  0
 25 60  1  0
 25 61  1  0
 25 62  1  0
 26 63  1  0
 26 64  1  0
 26 65  1  0
 27 66  1  0
 27 67  1  0
 27 68  1  0
 29 69  1  0
 29 70  1  0
 29 71  1  0
 30 72  1  0
 31 73  1  0
 32 74  1  0
 33 75  1  0
 37 76  1  0
 37 77  1  0
 38 78  1  0
 38 79  1  0
 40 80  1  0
M  END
> <Name>
12

> <AbsoluteEnergy>
102.946

> <Clean Energy>
142.836

> <Column 1>
12

> <ConfNumber>
123

> <Filter_Pass>
Failed

> <IC50_nM>
73.84

> <LogP>
6.59

> <MOL_NUMBER>
9

> <QSAR_Score_pIC50>
7.132

> <RelativeEnergy>
17.7422

> <SMILES>
COc1cc(C)ccc1NC(=O)C1(c2ccccc2C(C)(C)C)CCN(c2ccc(C3(C(=O)O)CC3)cc2)CC1

> <Toxicity_Alerts>
DILI, Basic N (hERG Warning)

> <Type>
Analog

> <POSE_NUMBER>
14

> <LibDockScore>
123.9408

> <HotSpots>
-4.73,-22.32,50.38,A,46,14
0.27,-22.52,46.78,A,23,20
-4.53,-24.52,46.19,A,17,26

$$$$
12
  SciTegic05082609073D

 80 84  0  0  0  0            999 V2000
   -5.0325  -27.3574   53.2907 O   0  0  0  1  0  0
   -5.7615  -26.8550   52.4628 C   0  0  0  1  0  0
   -7.0291  -27.3640   52.2281 N   0  0  0  1  0  0
   -5.2367  -25.6617   51.6563 C   0  0  0  1  0  0
   -7.7651  -28.1975   53.0689 C   0  0  0  1  0  0
   -3.6830  -25.6876   51.7411 C   0  0  0  1  0  0
   -5.7732  -25.6201   50.1551 C   0  0  0  1  0  0
   -5.8621  -24.3424   52.2854 C   0  0  0  1  0  0
   -8.7603  -29.0459   52.5098 C   0  0  0  1  0  0
   -7.5374  -28.2348   54.4660 C   0  0  0  1  0  0
   -2.7826  -26.6450   51.1157 C   0  0  0  1  0  0
   -3.0878  -24.6699   52.5429 C   0  0  0  1  0  0
   -6.0604  -24.2094   49.5887 C   0  0  0  1  0  0
   -5.3882  -23.0147   51.5938 C   0  0  0  1  0  0
   -8.9991  -28.9864   51.1984 O   0  0  0  1  0  0
   -9.4594  -29.9381   53.3576 C   0  0  0  1  0  0
   -8.2314  -29.1295   55.2873 C   0  0  0  1  0  0
   -1.3928  -26.3381   51.1460 C   0  0  0  1  0  0
   -3.1097  -27.9912   50.4193 C   0  0  0  1  0  0
   -1.7111  -24.4644   52.6174 C   0  0  0  1  0  0
   -5.0283  -23.3456   50.1887 N   0  0  0  1  0  0
  -10.0059  -29.7753   50.5583 C   0  0  0  1  0  0
   -9.1908  -29.9916   54.7384 C   0  0  0  1  0  0
   -0.8618  -25.2847   51.8928 C   0  0  0  1  0  0
   -2.8238  -27.9179   48.8951 C   0  0  0  1  0  0
   -2.1768  -29.1228   50.9666 C   0  0  0  1  0  0
   -4.5125  -28.6058   50.6715 C   0  0  0  1  0  0
   -3.7758  -23.1450   49.6065 C   0  0  0  1  0  0
   -9.9156  -30.9546   55.6198 C   0  0  0  1  0  0
   -2.6846  -22.5917   50.3162 C   0  0  0  1  0  0
   -3.5553  -23.5824   48.2793 C   0  0  0  1  0  0
   -1.3787  -22.7079   49.8028 C   0  0  0  1  0  0
   -2.2622  -23.6889   47.7650 C   0  0  0  1  0  0
   -1.1645  -23.3373   48.5612 C   0  0  0  1  0  0
    0.2160  -23.6895   48.0742 C   0  0  0  1  0  0
    0.6566  -25.0172   48.6757 C   0  0  0  1  0  0
    1.2468  -22.6129   47.7763 C   0  0  0  1  0  0
    0.6106  -23.3834   46.6420 C   0  0  0  1  0  0
    1.5274  -25.0314   49.5150 O   0  0  0  1  0  0
    0.0432  -26.1415   48.2980 O   0  0  0  1  0  0
   -7.4918  -27.0880   51.3036 H   0  0
   -6.6881  -26.2096   50.0947 H   0  0
   -5.0430  -26.1095   49.5106 H   0  0
   -5.6022  -24.2985   53.3430 H   0  0
   -6.9485  -24.4028   52.2209 H   0  0
   -6.8093  -27.5551   54.9088 H   0  0
   -3.7411  -24.0209   53.1260 H   0  0
   -5.9593  -24.2155   48.5034 H   0  0
   -7.0519  -23.8774   49.8967 H   0  0
   -4.5155  -22.6195   52.1137 H   0  0
   -6.1982  -22.2854   51.6042 H   0  0
  -10.2189  -30.5951   52.9339 H   0  0
   -8.0255  -29.1564   56.3573 H   0  0
   -0.7116  -26.9541   50.5589 H   0  0
   -1.3067  -23.6661   53.2397 H   0  0
  -10.9182  -29.5274   51.1009 H   0  0
   -9.7496  -30.7992   50.8304 H   0  0
  -10.0957  -29.6289   49.4819 H   0  0
    0.2139  -25.1089   51.9056 H   0  0
   -1.7710  -27.6773   48.7470 H   0  0
   -3.4341  -27.1256   48.4616 H   0  0
   -3.0585  -28.8708   48.4207 H   0  0
   -2.3277  -29.2236   52.0414 H   0  0
   -1.1378  -28.8563   50.7725 H   0  0
   -2.4116  -30.0661   50.4734 H   0  0
   -5.2309  -27.8462   50.3632 H   0  0
   -4.5990  -28.7183   51.7522 H   0  0
   -4.6666  -29.5499   50.1489 H   0  0
   -9.7277  -31.9317   55.1747 H   0  0
  -10.9710  -30.7319   55.4631 H   0  0
   -9.6267  -30.9075   56.6698 H   0  0
   -2.8547  -22.0752   51.2609 H   0  0
   -4.4070  -23.8398   47.6497 H   0  0
   -0.5340  -22.3110   50.3659 H   0  0
   -2.1068  -24.0447   46.7465 H   0  0
    2.2595  -22.9609   47.9799 H   0  0
    0.8209  -21.6142   47.8722 H   0  0
   -0.1515  -22.7930   46.1334 H   0  0
    1.2857  -24.1400   46.2421 H   0  0
    0.1468  -26.1690   47.2535 H   0  0
  1  2  2  0
  2  3  1  0
  2  4  1  0
  3  5  1  0
  4  6  1  0
  4  7  1  0
  4  8  1  0
  5  9  2  0
  5 10  1  0
  6 11  2  0
  6 12  1  0
  7 13  1  0
  8 14  1  0
  9 15  1  0
  9 16  1  0
 10 17  2  0
 11 18  1  0
 11 19  1  0
 12 20  2  0
 13 21  1  0
 14 21  1  0
 15 22  1  0
 16 23  2  0
 17 23  1  0
 18 24  2  0
 19 25  1  0
 19 26  1  0
 19 27  1  0
 20 24  1  0
 21 28  1  0
 23 29  1  0
 28 30  2  0
 28 31  1  0
 30 32  1  0
 31 33  2  0
 32 34  2  0
 33 34  1  0
 34 35  1  0
 35 36  1  0
 35 37  1  0
 35 38  1  0
 36 39  2  0
 36 40  1  0
 37 38  1  0
  3 41  1  0
  7 42  1  0
  7 43  1  0
  8 44  1  0
  8 45  1  0
 10 46  1  0
 12 47  1  0
 13 48  1  0
 13 49  1  0
 14 50  1  0
 14 51  1  0
 16 52  1  0
 17 53  1  0
 18 54  1  0
 20 55  1  0
 22 56  1  0
 22 57  1  0
 22 58  1  0
 24 59  1  0
 25 60  1  0
 25 61  1  0
 25 62  1  0
 26 63  1  0
 26 64  1  0
 26 65  1  0
 27 66  1  0
 27 67  1  0
 27 68  1  0
 29 69  1  0
 29 70  1  0
 29 71  1  0
 30 72  1  0
 31 73  1  0
 32 74  1  0
 33 75  1  0
 37 76  1  0
 37 77  1  0
 38 78  1  0
 38 79  1  0
 40 80  1  0
M  END
> <Name>
12

> <AbsoluteEnergy>
101.633

> <Clean Energy>
142.836

> <Column 1>
12

> <ConfNumber>
110

> <Filter_Pass>
Failed

> <IC50_nM>
73.84

> <LogP>
6.59

> <MOL_NUMBER>
9

> <QSAR_Score_pIC50>
7.132

> <RelativeEnergy>
16.4293

> <SMILES>
COc1cc(C)ccc1NC(=O)C1(c2ccccc2C(C)(C)C)CCN(c2ccc(C3(C(=O)O)CC3)cc2)CC1

> <Toxicity_Alerts>
DILI, Basic N (hERG Warning)

> <Type>
Analog

> <POSE_NUMBER>
15

> <LibDockScore>
121.3701

> <HotSpots>
-7.33,-24.12,50.38,A,44,8
-9.53,-30.12,52.78,A,62,16
-2.53,-22.32,48.19,A,29,32

$$$$
12
  SciTegic05082609073D

 80 84  0  0  0  0            999 V2000
   -2.5817  -25.5681   50.8406 O   0  0  0  1  0  0
   -2.2567  -24.4770   50.4322 C   0  0  0  1  0  0
   -1.0172  -23.9498   50.7815 N   0  0  0  1  0  0
   -3.2046  -23.6675   49.5255 C   0  0  0  1  0  0
   -0.0096  -24.5806   51.5030 C   0  0  0  1  0  0
   -2.4382  -23.1680   48.2778 C   0  0  0  1  0  0
   -3.6830  -22.5277   50.5230 C   0  0  0  1  0  0
   -4.5569  -24.3642   49.0949 C   0  0  0  1  0  0
    1.3492  -24.3282   51.1758 C   0  0  0  1  0  0
   -0.3113  -25.4598   52.5669 C   0  0  0  1  0  0
   -2.0433  -23.9600   47.1169 C   0  0  0  1  0  0
   -2.0734  -21.7933   48.2937 C   0  0  0  1  0  0
   -4.4372  -23.0450   51.7854 C   0  0  0  1  0  0
   -5.7385  -24.2285   50.0882 C   0  0  0  1  0  0
    1.6182  -23.4924   50.1728 O   0  0  0  1  0  0
    2.3678  -24.9738   51.9164 C   0  0  0  1  0  0
    0.7085  -26.0953   53.2857 C   0  0  0  1  0  0
   -1.2705  -23.3004   46.1219 C   0  0  0  1  0  0
   -2.3690  -25.4446   46.8032 C   0  0  0  1  0  0
   -1.3195  -21.1974   47.2851 C   0  0  0  1  0  0
   -5.1633  -24.3047   51.4472 N   0  0  0  1  0  0
    2.9527  -23.1565   49.7803 C   0  0  0  1  0  0
    2.0532  -25.8578   52.9649 C   0  0  0  1  0  0
   -0.9087  -21.9566   46.1989 C   0  0  0  1  0  0
   -1.3467  -26.1066   45.8200 C   0  0  0  1  0  0
   -3.7271  -25.5453   46.0727 C   0  0  0  1  0  0
   -2.3227  -26.4095   48.0077 C   0  0  0  1  0  0
   -5.0995  -25.4869   52.1908 C   0  0  0  1  0  0
    3.1331  -26.5425   53.7383 C   0  0  0  1  0  0
   -5.8803  -26.6162   51.8377 C   0  0  0  1  0  0
   -4.1877  -25.6254   53.2648 C   0  0  0  1  0  0
   -5.5298  -27.8918   52.3038 C   0  0  0  1  0  0
   -3.8267  -26.8999   53.7194 C   0  0  0  1  0  0
   -4.4135  -28.0370   53.1419 C   0  0  0  1  0  0
   -3.8104  -29.3967   53.3649 C   0  0  0  1  0  0
   -2.3765  -29.3984   52.8338 C   0  0  0  1  0  0
   -4.6665  -30.6471   53.2695 C   0  0  0  1  0  0
   -4.1377  -30.1983   54.6127 C   0  0  0  1  0  0
   -2.1755  -29.5579   51.6525 O   0  0  0  1  0  0
   -1.3641  -29.1900   53.6779 O   0  0  0  1  0  0
   -0.8175  -22.9491   50.4596 H   0  0
   -2.8126  -21.9566   50.8461 H   0  0
   -4.3353  -21.8402   49.9844 H   0  0
   -4.8666  -23.9551   48.1332 H   0  0
   -4.3647  -25.4246   48.9313 H   0  0
   -1.3521  -25.6460   52.8318 H   0  0
   -2.3984  -21.1783   49.1329 H   0  0
   -3.7200  -23.2421   52.5822 H   0  0
   -5.1521  -22.2920   52.1171 H   0  0
   -6.4435  -25.0462   49.9388 H   0  0
   -6.2300  -23.2658   49.9480 H   0  0
    3.4125  -24.7832   51.6707 H   0  0
    0.4564  -26.7773   54.0978 H   0  0
   -0.9445  -23.8750   45.2549 H   0  0
   -1.0542  -20.1421   47.3488 H   0  0
    3.4174  -24.1214   49.5777 H   0  0
    3.4077  -22.7772   50.6953 H   0  0
    3.0297  -22.4611   48.9445 H   0  0
   -0.3066  -21.5049   45.4105 H   0  0
   -0.3567  -26.0359   46.2706 H   0  0
   -1.3493  -25.5278   44.8964 H   0  0
   -1.6067  -27.1467   45.6232 H   0  0
   -3.6781  -24.9797   45.1422 H   0  0
   -4.5090  -25.1282   46.7073 H   0  0
   -3.9515  -26.5894   45.8545 H   0  0
   -3.0284  -26.0250   48.7441 H   0  0
   -1.3213  -26.3334   48.4314 H   0  0
   -2.5597  -27.4355   47.7260 H   0  0
    3.7548  -25.7326   54.1199 H   0  0
    3.7216  -27.0666   52.9853 H   0  0
    2.7719  -27.2036   54.5261 H   0  0
   -6.7566  -26.4927   51.2014 H   0  0
   -3.7661  -24.7389   53.7386 H   0  0
   -6.1193  -28.7628   52.0176 H   0  0
   -3.0932  -27.0085   54.5183 H   0  0
   -4.1002  -31.4916   52.8768 H   0  0
   -5.7218  -30.4014   53.1508 H   0  0
   -4.9122  -29.7147   55.2080 H   0  0
   -3.2898  -30.8036   54.9332 H   0  0
   -1.4738  -29.9269   54.4178 H   0  0
  1  2  2  0
  2  3  1  0
  2  4  1  0
  3  5  1  0
  4  6  1  0
  4  7  1  0
  4  8  1  0
  5  9  2  0
  5 10  1  0
  6 11  2  0
  6 12  1  0
  7 13  1  0
  8 14  1  0
  9 15  1  0
  9 16  1  0
 10 17  2  0
 11 18  1  0
 11 19  1  0
 12 20  2  0
 13 21  1  0
 14 21  1  0
 15 22  1  0
 16 23  2  0
 17 23  1  0
 18 24  2  0
 19 25  1  0
 19 26  1  0
 19 27  1  0
 20 24  1  0
 21 28  1  0
 23 29  1  0
 28 30  2  0
 28 31  1  0
 30 32  1  0
 31 33  2  0
 32 34  2  0
 33 34  1  0
 34 35  1  0
 35 36  1  0
 35 37  1  0
 35 38  1  0
 36 39  2  0
 36 40  1  0
 37 38  1  0
  3 41  1  0
  7 42  1  0
  7 43  1  0
  8 44  1  0
  8 45  1  0
 10 46  1  0
 12 47  1  0
 13 48  1  0
 13 49  1  0
 14 50  1  0
 14 51  1  0
 16 52  1  0
 17 53  1  0
 18 54  1  0
 20 55  1  0
 22 56  1  0
 22 57  1  0
 22 58  1  0
 24 59  1  0
 25 60  1  0
 25 61  1  0
 25 62  1  0
 26 63  1  0
 26 64  1  0
 26 65  1  0
 27 66  1  0
 27 67  1  0
 27 68  1  0
 29 69  1  0
 29 70  1  0
 29 71  1  0
 30 72  1  0
 31 73  1  0
 32 74  1  0
 33 75  1  0
 37 76  1  0
 37 77  1  0
 38 78  1  0
 38 79  1  0
 40 80  1  0
M  END
> <Name>
12

> <AbsoluteEnergy>
100.836

> <Clean Energy>
142.836

> <Column 1>
12

> <ConfNumber>
101

> <Filter_Pass>
Failed

> <IC50_nM>
73.84

> <LogP>
6.59

> <MOL_NUMBER>
9

> <QSAR_Score_pIC50>
7.132

> <RelativeEnergy>
15.6323

> <SMILES>
COc1cc(C)ccc1NC(=O)C1(c2ccccc2C(C)(C)C)CCN(c2ccc(C3(C(=O)O)CC3)cc2)CC1

> <Toxicity_Alerts>
DILI, Basic N (hERG Warning)

> <Type>
Analog

> <POSE_NUMBER>
16

> <LibDockScore>
117.373

> <HotSpots>
-4.73,-22.32,50.38,A,46,7
1.67,-24.32,50.98,A,50,16
-2.53,-21.12,45.98,A,16,24

$$$$
12
  SciTegic05082609073D

 80 84  0  0  0  0            999 V2000
   -2.5648  -26.6231   48.4595 O   0  0  0  1  0  0
   -2.5982  -25.6711   49.2095 C   0  0  0  1  0  0
   -1.4784  -24.8531   49.3535 N   0  0  0  1  0  0
   -3.8575  -25.4277   50.0595 C   0  0  0  1  0  0
   -0.3386  -24.9162   48.5633 C   0  0  0  1  0  0
   -4.4741  -24.0105   49.9320 C   0  0  0  1  0  0
   -4.9854  -26.5195   49.8474 C   0  0  0  1  0  0
   -3.2338  -25.7472   51.4821 C   0  0  0  1  0  0
    0.9820  -24.7165   49.0944 C   0  0  0  1  0  0
   -0.4854  -25.1867   47.1797 C   0  0  0  1  0  0
   -4.6774  -23.2301   48.7170 C   0  0  0  1  0  0
   -4.9091  -23.4245   51.1538 C   0  0  0  1  0  0
   -5.9189  -26.8247   51.0408 C   0  0  0  1  0  0
   -4.2120  -26.0335   52.6333 C   0  0  0  1  0  0
    1.3323  -24.4959   50.3654 O   0  0  0  1  0  0
    2.0790  -24.7785   48.2160 C   0  0  0  1  0  0
    0.6310  -25.2629   46.3332 C   0  0  0  1  0  0
   -5.5047  -22.0688   48.8294 C   0  0  0  1  0  0
   -4.0731  -23.4776   47.3068 C   0  0  0  1  0  0
   -5.6932  -22.2746   51.2156 C   0  0  0  1  0  0
   -5.0959  -27.1320   52.2176 N   0  0  0  1  0  0
    0.4542  -24.6211   51.4884 C   0  0  0  1  0  0
    1.9174  -25.0519   46.8457 C   0  0  0  1  0  0
   -6.0135  -21.6056   50.0439 C   0  0  0  1  0  0
   -2.5975  -23.0185   47.3082 C   0  0  0  1  0  0
   -4.7457  -22.6324   46.1752 C   0  0  0  1  0  0
   -4.1671  -24.9063   46.7364 C   0  0  0  1  0  0
   -5.0742  -28.3487   52.8605 C   0  0  0  1  0  0
    3.1064  -25.1201   45.9422 C   0  0  0  1  0  0
   -6.2523  -28.9789   53.3174 C   0  0  0  1  0  0
   -3.8211  -28.9604   53.0789 C   0  0  0  1  0  0
   -6.1569  -30.1503   54.0897 C   0  0  0  1  0  0
   -3.7273  -30.1307   53.8358 C   0  0  0  1  0  0
   -4.8886  -30.6886   54.3960 C   0  0  0  1  0  0
   -4.7450  -31.8378   55.3576 C   0  0  0  1  0  0
   -3.8549  -31.3917   56.5132 C   0  0  0  1  0  0
   -4.6267  -33.2604   54.8409 C   0  0  0  1  0  0
   -5.8868  -32.8334   55.5708 C   0  0  0  1  0  0
   -4.3683  -31.0289   57.5514 O   0  0  0  1  0  0
   -2.5289  -31.3672   56.3221 O   0  0  0  1  0  0
   -1.4990  -24.1203   50.1329 H   0  0
   -5.6029  -26.2140   49.0028 H   0  0
   -4.5084  -27.4511   49.5429 H   0  0
   -2.5993  -24.9108   51.7754 H   0  0
   -2.5682  -26.6044   51.3803 H   0  0
   -1.4825  -25.3381   46.7663 H   0  0
   -4.6136  -23.8997   52.0892 H   0  0
   -6.5490  -27.6817   50.8028 H   0  0
   -6.5420  -25.9549   51.2486 H   0  0
   -3.6551  -26.3277   53.5229 H   0  0
   -4.8062  -25.1436   52.8406 H   0  0
    3.0820  -24.6100   48.6081 H   0  0
    0.4970  -25.4867   45.2749 H   0  0
   -5.7501  -21.5180   47.9214 H   0  0
   -6.0516  -21.9042   52.1760 H   0  0
    0.0762  -25.6390   51.3935 H   0  0
   -0.3753  -23.9640   51.2272 H   0  0
    0.8896  -24.4068   52.4644 H   0  0
   -6.6567  -20.7260   50.0711 H   0  0
   -2.0344  -23.5873   48.0481 H   0  0
   -2.5415  -21.9559   47.5444 H   0  0
   -2.1673  -23.1894   46.3214 H   0  0
   -4.6377  -21.5809   46.4413 H   0  0
   -5.8076  -22.8782   46.1677 H   0  0
   -4.2935  -22.8354   45.2044 H   0  0
   -5.2276  -25.1580   46.7335 H   0  0
   -3.6793  -25.5524   47.4662 H   0  0
   -3.7226  -25.0017   45.7457 H   0  0
    3.7535  -25.8745   46.3896 H   0  0
    3.6051  -24.1587   46.0648 H   0  0
    2.8649  -25.3379   44.9019 H   0  0
   -7.2287  -28.5604   53.0732 H   0  0
   -2.9206  -28.5167   52.6542 H   0  0
   -7.0604  -30.6414   54.4510 H   0  0
   -2.7596  -30.6078   53.9907 H   0  0
   -3.9813  -33.8662   55.4769 H   0  0
   -4.7850  -33.3101   53.7636 H   0  0
   -6.7091  -32.6514   54.8788 H   0  0
   -5.9036  -33.2068   56.5947 H   0  0
   -2.3782  -30.7422   55.4920 H   0  0
  1  2  2  0
  2  3  1  0
  2  4  1  0
  3  5  1  0
  4  6  1  0
  4  7  1  0
  4  8  1  0
  5  9  2  0
  5 10  1  0
  6 11  2  0
  6 12  1  0
  7 13  1  0
  8 14  1  0
  9 15  1  0
  9 16  1  0
 10 17  2  0
 11 18  1  0
 11 19  1  0
 12 20  2  0
 13 21  1  0
 14 21  1  0
 15 22  1  0
 16 23  2  0
 17 23  1  0
 18 24  2  0
 19 25  1  0
 19 26  1  0
 19 27  1  0
 20 24  1  0
 21 28  1  0
 23 29  1  0
 28 30  2  0
 28 31  1  0
 30 32  1  0
 31 33  2  0
 32 34  2  0
 33 34  1  0
 34 35  1  0
 35 36  1  0
 35 37  1  0
 35 38  1  0
 36 39  2  0
 36 40  1  0
 37 38  1  0
  3 41  1  0
  7 42  1  0
  7 43  1  0
  8 44  1  0
  8 45  1  0
 10 46  1  0
 12 47  1  0
 13 48  1  0
 13 49  1  0
 14 50  1  0
 14 51  1  0
 16 52  1  0
 17 53  1  0
 18 54  1  0
 20 55  1  0
 22 56  1  0
 22 57  1  0
 22 58  1  0
 24 59  1  0
 25 60  1  0
 25 61  1  0
 25 62  1  0
 26 63  1  0
 26 64  1  0
 26 65  1  0
 27 66  1  0
 27 67  1  0
 27 68  1  0
 29 69  1  0
 29 70  1  0
 29 71  1  0
 30 72  1  0
 31 73  1  0
 32 74  1  0
 33 75  1  0
 37 76  1  0
 37 77  1  0
 38 78  1  0
 38 79  1  0
 40 80  1  0
M  END
> <Name>
12

> <AbsoluteEnergy>
103.199

> <Clean Energy>
142.836

> <Column 1>
12

> <ConfNumber>
124

> <Filter_Pass>
Failed

> <IC50_nM>
73.84

> <LogP>
6.59

> <MOL_NUMBER>
9

> <QSAR_Score_pIC50>
7.132

> <RelativeEnergy>
17.9951

> <SMILES>
COc1cc(C)ccc1NC(=O)C1(c2ccccc2C(C)(C)C)CCN(c2ccc(C3(C(=O)O)CC3)cc2)CC1

> <Toxicity_Alerts>
DILI, Basic N (hERG Warning)

> <Type>
Analog

> <POSE_NUMBER>
17

> <LibDockScore>
108.0028

> <HotSpots>
1.87,-24.92,46.78,A,22,17
-5.13,-22.92,46.19,A,18,26
-4.33,-32.92,55.19,A,75,38

$$$$
12
  SciTegic05082609073D

 80 84  0  0  0  0            999 V2000
   -7.9975  -27.3743   53.6861 O   0  0  0  1  0  0
   -7.5623  -28.4870   53.8764 C   0  0  0  1  0  0
   -8.1176  -29.3198   54.8432 N   0  0  0  1  0  0
   -6.3693  -28.9851   53.0512 C   0  0  0  1  0  0
   -8.8408  -28.9598   55.9815 C   0  0  0  1  0  0
   -6.7011  -30.2903   52.2874 C   0  0  0  1  0  0
   -5.2560  -29.0907   54.1751 C   0  0  0  1  0  0
   -5.7923  -27.9162   52.0631 C   0  0  0  1  0  0
   -9.5070  -29.9714   56.7260 C   0  0  0  1  0  0
   -8.9251  -27.6164   56.4222 C   0  0  0  1  0  0
   -7.8238  -30.5207   51.3827 C   0  0  0  1  0  0
   -5.8029  -31.3710   52.4990 C   0  0  0  1  0  0
   -3.7670  -29.1998   53.7538 C   0  0  0  1  0  0
   -4.3624  -28.1775   51.5591 C   0  0  0  1  0  0
   -9.4206  -31.2345   56.3091 O   0  0  0  1  0  0
  -10.2450  -29.6109   57.8781 C   0  0  0  1  0  0
   -9.6673  -27.2782   57.5626 C   0  0  0  1  0  0
   -7.7859  -31.7210   50.6121 C   0  0  0  1  0  0
   -9.0882  -29.6336   51.1734 C   0  0  0  1  0  0
   -5.8431  -32.5508   51.7563 C   0  0  0  1  0  0
   -3.4086  -28.2335   52.6897 N   0  0  0  1  0  0
  -10.0758  -32.3164   56.9765 C   0  0  0  1  0  0
  -10.3297  -28.2721   58.2967 C   0  0  0  1  0  0
   -6.8192  -32.7112   50.7853 C   0  0  0  1  0  0
   -9.8704  -29.9717   49.8625 C   0  0  0  1  0  0
   -8.8286  -28.1212   51.0127 C   0  0  0  1  0  0
  -10.1235  -29.8701   52.3041 C   0  0  0  1  0  0
   -2.2565  -27.4540   52.7360 C   0  0  0  1  0  0
  -11.1165  -27.8991   59.5120 C   0  0  0  1  0  0
   -1.3839  -27.5171   53.8452 C   0  0  0  1  0  0
   -1.9333  -26.5817   51.6701 C   0  0  0  1  0  0
   -0.2116  -26.7435   53.8794 C   0  0  0  1  0  0
   -0.7612  -25.8087   51.7064 C   0  0  0  1  0  0
    0.1082  -25.8910   52.8077 C   0  0  0  1  0  0
    1.3756  -25.0672   52.8393 C   0  0  0  1  0  0
    1.1408  -23.6195   53.2448 C   0  0  0  1  0  0
    2.4650  -25.3659   51.8198 C   0  0  0  1  0  0
    2.6801  -25.7198   53.2708 C   0  0  0  1  0  0
    0.5643  -23.3852   54.2817 O   0  0  0  1  0  0
    1.5792  -22.6438   52.4481 O   0  0  0  1  0  0
   -7.9716  -30.3694   54.6952 H   0  0
   -5.4897  -29.9503   54.8033 H   0  0
   -5.3557  -28.2260   54.8312 H   0  0
   -6.4554  -27.8465   51.2008 H   0  0
   -5.8135  -26.9423   52.5522 H   0  0
   -8.4060  -26.8349   55.8673 H   0  0
   -5.0471  -31.2733   53.2783 H   0  0
   -3.1361  -29.0189   54.6241 H   0  0
   -3.5699  -30.2103   53.3957 H   0  0
   -4.0671  -27.3781   50.8796 H   0  0
   -4.3375  -29.1250   51.0209 H   0  0
  -10.7565  -30.3847   58.4506 H   0  0
   -9.7296  -26.2373   57.8800 H   0  0
   -8.5506  -31.8715   49.8501 H   0  0
   -5.1133  -33.3398   51.9378 H   0  0
  -11.1235  -32.0163   56.9974 H   0  0
   -9.7121  -32.2513   58.0020 H   0  0
   -9.9215  -33.2987   56.5300 H   0  0
   -6.8311  -33.6050   50.1615 H   0  0
  -10.1623  -31.0208   49.9099 H   0  0
   -9.1872  -29.8400   49.0235 H   0  0
  -10.7463  -29.3328   49.7500 H   0  0
   -8.1545  -28.0088   50.1636 H   0  0
   -8.2961  -27.7992   51.9076 H   0  0
   -9.7488  -27.5547   50.8699 H   0  0
   -9.6622  -29.6268   53.2613 H   0  0
  -10.4119  -30.9212   52.3041 H   0  0
  -11.0018  -29.2444   52.1459 H   0  0
  -10.6909  -28.5039   60.3127 H   0  0
  -12.1182  -28.2842   59.3212 H   0  0
  -11.1114  -26.8334   59.7408 H   0  0
   -1.6225  -28.1725   54.6828 H   0  0
   -2.6010  -26.5088   50.8116 H   0  0
    0.4533  -26.8044   54.7409 H   0  0
   -0.5248  -25.1422   50.8770 H   0  0
    3.0096  -24.4640   51.5406 H   0  0
    2.2229  -26.2450   51.2226 H   0  0
    2.5538  -26.7880   53.4475 H   0  0
    3.3390  -25.0064   53.7657 H   0  0
    1.1339  -22.8318   51.5160 H   0  0
  1  2  2  0
  2  3  1  0
  2  4  1  0
  3  5  1  0
  4  6  1  0
  4  7  1  0
  4  8  1  0
  5  9  2  0
  5 10  1  0
  6 11  2  0
  6 12  1  0
  7 13  1  0
  8 14  1  0
  9 15  1  0
  9 16  1  0
 10 17  2  0
 11 18  1  0
 11 19  1  0
 12 20  2  0
 13 21  1  0
 14 21  1  0
 15 22  1  0
 16 23  2  0
 17 23  1  0
 18 24  2  0
 19 25  1  0
 19 26  1  0
 19 27  1  0
 20 24  1  0
 21 28  1  0
 23 29  1  0
 28 30  2  0
 28 31  1  0
 30 32  1  0
 31 33  2  0
 32 34  2  0
 33 34  1  0
 34 35  1  0
 35 36  1  0
 35 37  1  0
 35 38  1  0
 36 39  2  0
 36 40  1  0
 37 38  1  0
  3 41  1  0
  7 42  1  0
  7 43  1  0
  8 44  1  0
  8 45  1  0
 10 46  1  0
 12 47  1  0
 13 48  1  0
 13 49  1  0
 14 50  1  0
 14 51  1  0
 16 52  1  0
 17 53  1  0
 18 54  1  0
 20 55  1  0
 22 56  1  0
 22 57  1  0
 22 58  1  0
 24 59  1  0
 25 60  1  0
 25 61  1  0
 25 62  1  0
 26 63  1  0
 26 64  1  0
 26 65  1  0
 27 66  1  0
 27 67  1  0
 27 68  1  0
 29 69  1  0
 29 70  1  0
 29 71  1  0
 30 72  1  0
 31 73  1  0
 32 74  1  0
 33 75  1  0
 37 76  1  0
 37 77  1  0
 38 78  1  0
 38 79  1  0
 40 80  1  0
M  END
> <Name>
12

> <AbsoluteEnergy>
89.6938

> <Clean Energy>
142.836

> <Column 1>
12

> <ConfNumber>
15

> <Filter_Pass>
Failed

> <IC50_nM>
73.84

> <LogP>
6.59

> <MOL_NUMBER>
9

> <QSAR_Score_pIC50>
7.132

> <RelativeEnergy>
4.48994

> <SMILES>
COc1cc(C)ccc1NC(=O)C1(c2ccccc2C(C)(C)C)CCN(c2ccc(C3(C(=O)O)CC3)cc2)CC1

> <Toxicity_Alerts>
DILI, Basic N (hERG Warning)

> <Type>
Analog

> <POSE_NUMBER>
18

> <LibDockScore>
106.0512

> <HotSpots>
-7.13,-31.92,50.98,A,49,18
-9.53,-30.12,52.78,A,62,27
-0.33,-25.52,53.19,A,64,32

$$$$
12
  SciTegic05082609073D

 80 84  0  0  0  0            999 V2000
   -2.5708  -26.5391   51.4954 O   0  0  0  1  0  0
   -3.6394  -26.5275   50.9274 C   0  0  0  1  0  0
   -3.6600  -26.5889   49.5387 N   0  0  0  1  0  0
   -4.9311  -26.3419   51.7501 C   0  0  0  1  0  0
   -2.5507  -26.3173   48.7413 C   0  0  0  1  0  0
   -5.7693  -27.6434   51.9135 C   0  0  0  1  0  0
   -5.7163  -25.1770   50.9942 C   0  0  0  1  0  0
   -4.6231  -25.6474   53.1403 C   0  0  0  1  0  0
   -2.7192  -25.5303   47.5713 C   0  0  0  1  0  0
   -1.2564  -26.7628   49.0940 C   0  0  0  1  0  0
   -5.2965  -28.9990   52.1855 C   0  0  0  1  0  0
   -7.1794  -27.4757   51.7714 C   0  0  0  1  0  0
   -4.8875  -23.8938   50.7032 C   0  0  0  1  0  0
   -4.3256  -24.1159   53.0746 C   0  0  0  1  0  0
   -3.9432  -25.1181   47.2442 O   0  0  0  1  0  0
   -1.5800  -25.1721   46.8122 C   0  0  0  1  0  0
   -0.1428  -26.4078   48.3219 C   0  0  0  1  0  0
   -6.2524  -30.0513   52.1105 C   0  0  0  1  0  0
   -3.8664  -29.4634   52.5537 C   0  0  0  1  0  0
   -8.0841  -28.5378   51.7750 C   0  0  0  1  0  0
   -3.8048  -23.7820   51.7201 N   0  0  0  1  0  0
   -4.2021  -24.3168   46.0863 C   0  0  0  1  0  0
   -0.2965  -25.6025   47.1845 C   0  0  0  1  0  0
   -7.6146  -29.8347   51.9192 C   0  0  0  1  0  0
   -2.9941  -29.6053   51.2883 C   0  0  0  1  0  0
   -3.1914  -28.5978   53.6434 C   0  0  0  1  0  0
   -3.8260  -30.8865   53.2066 C   0  0  0  1  0  0
   -2.4499  -23.6214   51.4064 C   0  0  0  1  0  0
    0.8973  -25.2021   46.3807 C   0  0  0  1  0  0
   -1.4570  -23.6798   52.4132 C   0  0  0  1  0  0
   -2.0148  -23.4706   50.0661 C   0  0  0  1  0  0
   -0.0987  -23.7858   52.0794 C   0  0  0  1  0  0
   -0.6601  -23.6049   49.7350 C   0  0  0  1  0  0
    0.3055  -23.8215   50.7340 C   0  0  0  1  0  0
    1.7463  -24.1123   50.3548 C   0  0  0  1  0  0
    2.3392  -23.1234   49.3623 C   0  0  0  1  0  0
    2.7216  -24.8087   51.2964 C   0  0  0  1  0  0
    2.0993  -25.5812   50.1627 C   0  0  0  1  0  0
    2.0151  -23.2042   48.2007 O   0  0  0  1  0  0
    3.1958  -22.1974   49.7843 O   0  0  0  1  0  0
   -4.5764  -26.8591   49.0570 H   0  0
   -6.0937  -25.5673   50.0490 H   0  0
   -6.5868  -24.8994   51.5886 H   0  0
   -5.4722  -25.8072   53.8048 H   0  0
   -3.7692  -26.1466   53.5982 H   0  0
   -1.1235  -27.3892   49.9761 H   0  0
   -7.5700  -26.4649   51.6539 H   0  0
   -4.4477  -23.9611   49.7081 H   0  0
   -5.5348  -23.0188   50.7623 H   0  0
   -3.5797  -23.8558   53.8257 H   0  0
   -5.2435  -23.5579   53.2596 H   0  0
   -1.7009  -24.5520   45.9240 H   0  0
    0.8487  -26.7596   48.6069 H   0  0
   -5.9003  -31.0783   52.2077 H   0  0
   -9.1521  -28.3496   51.6653 H   0  0
   -3.7876  -24.8993   45.2635 H   0  0
   -3.5536  -23.4500   46.2140 H   0  0
   -5.2476  -24.0484   45.9344 H   0  0
   -8.3056  -30.6769   51.8831 H   0  0
   -2.9448  -28.6410   50.7826 H   0  0
   -3.4536  -30.3352   50.6218 H   0  0
   -1.9905  -29.9325   51.5601 H   0  0
   -3.8265  -28.6286   54.5287 H   0  0
   -3.1610  -27.5717   53.2770 H   0  0
   -2.1884  -28.9574   53.8731 H   0  0
   -4.2693  -31.5894   52.5012 H   0  0
   -4.4447  -30.8592   54.1036 H   0  0
   -2.8049  -31.1789   53.4516 H   0  0
    0.8699  -24.1126   46.3640 H   0  0
    0.6792  -25.5425   45.3684 H   0  0
    1.8418  -25.5921   46.7599 H   0  0
   -1.7517  -23.6419   53.4619 H   0  0
   -2.7415  -23.2479   49.2849 H   0  0
    0.6495  -23.8409   52.8702 H   0  0
   -0.3513  -23.5408   48.6916 H   0  0
    2.2534  -25.0469   52.2515 H   0  0
    3.7530  -24.5322   51.0778 H   0  0
    2.7982  -25.7196   49.3378 H   0  0
    1.2979  -26.2329   50.5108 H   0  0
    3.9634  -22.7380   50.2544 H   0  0
  1  2  2  0
  2  3  1  0
  2  4  1  0
  3  5  1  0
  4  6  1  0
  4  7  1  0
  4  8  1  0
  5  9  2  0
  5 10  1  0
  6 11  2  0
  6 12  1  0
  7 13  1  0
  8 14  1  0
  9 15  1  0
  9 16  1  0
 10 17  2  0
 11 18  1  0
 11 19  1  0
 12 20  2  0
 13 21  1  0
 14 21  1  0
 15 22  1  0
 16 23  2  0
 17 23  1  0
 18 24  2  0
 19 25  1  0
 19 26  1  0
 19 27  1  0
 20 24  1  0
 21 28  1  0
 23 29  1  0
 28 30  2  0
 28 31  1  0
 30 32  1  0
 31 33  2  0
 32 34  2  0
 33 34  1  0
 34 35  1  0
 35 36  1  0
 35 37  1  0
 35 38  1  0
 36 39  2  0
 36 40  1  0
 37 38  1  0
  3 41  1  0
  7 42  1  0
  7 43  1  0
  8 44  1  0
  8 45  1  0
 10 46  1  0
 12 47  1  0
 13 48  1  0
 13 49  1  0
 14 50  1  0
 14 51  1  0
 16 52  1  0
 17 53  1  0
 18 54  1  0
 20 55  1  0
 22 56  1  0
 22 57  1  0
 22 58  1  0
 24 59  1  0
 25 60  1  0
 25 61  1  0
 25 62  1  0
 26 63  1  0
 26 64  1  0
 26 65  1  0
 27 66  1  0
 27 67  1  0
 27 68  1  0
 29 69  1  0
 29 70  1  0
 29 71  1  0
 30 72  1  0
 31 73  1  0
 32 74  1  0
 33 75  1  0
 37 76  1  0
 37 77  1  0
 38 78  1  0
 38 79  1  0
 40 80  1  0
M  END
> <Name>
12

> <AbsoluteEnergy>
102.946

> <Clean Energy>
142.836

> <Column 1>
12

> <ConfNumber>
123

> <Filter_Pass>
Failed

> <IC50_nM>
73.84

> <LogP>
6.59

> <MOL_NUMBER>
9

> <QSAR_Score_pIC50>
7.132

> <RelativeEnergy>
17.7422

> <SMILES>
COc1cc(C)ccc1NC(=O)C1(c2ccccc2C(C)(C)C)CCN(c2ccc(C3(C(=O)O)CC3)cc2)CC1

> <Toxicity_Alerts>
DILI, Basic N (hERG Warning)

> <Type>
Analog

> <POSE_NUMBER>
19

> <LibDockScore>
104.8736

> <HotSpots>
-5.13,-23.32,51.38,A,54,13
-7.93,-28.32,52.38,A,59,20
0.27,-24.92,46.38,A,19,29

$$$$
12
  SciTegic05082609073D

 80 84  0  0  0  0            999 V2000
   -1.9678  -26.3271   50.8225 O   0  0  0  1  0  0
   -1.5739  -25.1874   50.9191 C   0  0  0  1  0  0
   -2.3434  -24.0944   50.5089 N   0  0  0  1  0  0
   -0.1853  -24.9329   51.5326 C   0  0  0  1  0  0
   -3.7264  -23.8846   50.5061 C   0  0  0  1  0  0
    0.7072  -24.1023   50.5802 C   0  0  0  1  0  0
    0.5818  -26.2200   52.0382 C   0  0  0  1  0  0
   -0.5998  -24.1737   52.8547 C   0  0  0  1  0  0
   -4.7045  -24.7930   51.0089 C   0  0  0  1  0  0
   -4.1632  -22.6529   49.9529 C   0  0  0  1  0  0
    0.7224  -24.1822   49.1254 C   0  0  0  1  0  0
    1.5738  -23.1505   51.1919 C   0  0  0  1  0  0
    0.4003  -26.5856   53.5293 C   0  0  0  1  0  0
   -1.5272  -25.0111   53.7784 C   0  0  0  1  0  0
   -4.3319  -25.9491   51.5558 O   0  0  0  1  0  0
   -6.0733  -24.4362   50.9261 C   0  0  0  1  0  0
   -5.5222  -22.3197   49.8852 C   0  0  0  1  0  0
    1.4234  -23.1616   48.4304 C   0  0  0  1  0  0
    0.0665  -25.2435   48.2052 C   0  0  0  1  0  0
    2.3114  -22.2201   50.4563 C   0  0  0  1  0  0
   -1.0259  -26.4121   53.8936 N   0  0  0  1  0  0
   -5.2456  -27.0265   51.8025 C   0  0  0  1  0  0
   -6.4859  -23.2123   50.3689 C   0  0  0  1  0  0
    2.2122  -22.2056   49.0720 C   0  0  0  1  0  0
    0.8994  -25.4681   46.9006 C   0  0  0  1  0  0
   -1.3416  -24.8011   47.7408 C   0  0  0  1  0  0
   -0.0107  -26.6652   48.7946 C   0  0  0  1  0  0
   -1.8279  -27.4937   54.2359 C   0  0  0  1  0  0
   -7.9349  -22.8553   50.2879 C   0  0  0  1  0  0
   -1.3172  -28.5471   55.0301 C   0  0  0  1  0  0
   -3.1604  -27.5744   53.7725 C   0  0  0  1  0  0
   -2.1009  -29.6805   55.3036 C   0  0  0  1  0  0
   -3.9406  -28.7069   54.0490 C   0  0  0  1  0  0
   -3.4049  -29.7777   54.7892 C   0  0  0  1  0  0
   -4.2141  -31.0393   55.0152 C   0  0  0  1  0  0
   -4.1682  -31.9992   53.8151 C   0  0  0  1  0  0
   -4.3008  -31.5658   56.4419 C   0  0  0  1  0  0
   -5.5196  -30.9525   55.7905 C   0  0  0  1  0  0
   -4.9198  -31.7874   52.8871 O   0  0  0  1  0  0
   -3.3259  -33.0418   53.7945 O   0  0  0  1  0  0
   -1.7730  -23.2723   50.1297 H   0  0
    1.6462  -26.0876   51.8444 H   0  0
    0.2647  -27.0707   51.4350 H   0  0
   -1.1106  -23.2486   52.5876 H   0  0
    0.3012  -23.9074   53.4073 H   0  0
   -3.4234  -21.9491   49.5715 H   0  0
    1.6647  -23.1485   52.2781 H   0  0
    0.6938  -27.6231   53.6890 H   0  0
    1.0159  -25.9294   54.1445 H   0  0
   -2.5354  -25.0228   53.3643 H   0  0
   -1.5559  -24.5566   54.7687 H   0  0
   -6.8261  -25.1281   51.3040 H   0  0
   -5.8290  -21.3659   49.4561 H   0  0
    1.3416  -23.1229   47.3442 H   0  0
    2.9614  -21.5093   50.9666 H   0  0
   -5.6920  -27.2188   50.8269 H   0  0
   -6.0236  -26.5735   52.4170 H   0  0
   -4.8057  -27.9153   52.2549 H   0  0
    2.7460  -21.4537   48.4907 H   0  0
    1.9005  -25.7962   47.1801 H   0  0
    0.9736  -24.5197   46.3686 H   0  0
    0.4221  -26.2167   46.2682 H   0  0
   -1.2494  -23.8580   47.2021 H   0  0
   -1.9651  -24.6462   48.6214 H   0  0
   -1.7855  -25.5594   47.0958 H   0  0
   -0.5688  -26.5919   49.7280 H   0  0
    1.0095  -26.9653   49.0338 H   0  0
   -0.4796  -27.3693   48.1073 H   0  0
   -8.2932  -22.9262   51.3149 H   0  0
   -8.3901  -23.6777   49.7360 H   0  0
   -8.1348  -21.8831   49.8374 H   0  0
   -0.3068  -28.4788   55.4333 H   0  0
   -3.5845  -26.7517   53.1968 H   0  0
   -1.6965  -30.4863   55.9162 H   0  0
   -4.9680  -28.7581   53.6885 H   0  0
   -3.8357  -30.8801   57.1501 H   0  0
   -4.3608  -32.6539   56.4629 H   0  0
   -6.2287  -31.7146   55.4672 H   0  0
   -5.7029  -29.9410   56.1529 H   0  0
   -3.5541  -33.5723   54.6715 H   0  0
  1  2  2  0
  2  3  1  0
  2  4  1  0
  3  5  1  0
  4  6  1  0
  4  7  1  0
  4  8  1  0
  5  9  2  0
  5 10  1  0
  6 11  2  0
  6 12  1  0
  7 13  1  0
  8 14  1  0
  9 15  1  0
  9 16  1  0
 10 17  2  0
 11 18  1  0
 11 19  1  0
 12 20  2  0
 13 21  1  0
 14 21  1  0
 15 22  1  0
 16 23  2  0
 17 23  1  0
 18 24  2  0
 19 25  1  0
 19 26  1  0
 19 27  1  0
 20 24  1  0
 21 28  1  0
 23 29  1  0
 28 30  2  0
 28 31  1  0
 30 32  1  0
 31 33  2  0
 32 34  2  0
 33 34  1  0
 34 35  1  0
 35 36  1  0
 35 37  1  0
 35 38  1  0
 36 39  2  0
 36 40  1  0
 37 38  1  0
  3 41  1  0
  7 42  1  0
  7 43  1  0
  8 44  1  0
  8 45  1  0
 10 46  1  0
 12 47  1  0
 13 48  1  0
 13 49  1  0
 14 50  1  0
 14 51  1  0
 16 52  1  0
 17 53  1  0
 18 54  1  0
 20 55  1  0
 22 56  1  0
 22 57  1  0
 22 58  1  0
 24 59  1  0
 25 60  1  0
 25 61  1  0
 25 62  1  0
 26 63  1  0
 26 64  1  0
 26 65  1  0
 27 66  1  0
 27 67  1  0
 27 68  1  0
 29 69  1  0
 29 70  1  0
 29 71  1  0
 30 72  1  0
 31 73  1  0
 32 74  1  0
 33 75  1  0
 37 76  1  0
 37 77  1  0
 38 78  1  0
 38 79  1  0
 40 80  1  0
M  END
> <Name>
12

> <AbsoluteEnergy>
94.0105

> <Clean Energy>
142.836

> <Column 1>
12

> <ConfNumber>
38

> <Filter_Pass>
Failed

> <IC50_nM>
73.84

> <LogP>
6.59

> <MOL_NUMBER>
9

> <QSAR_Score_pIC50>
7.132

> <RelativeEnergy>
8.80663

> <SMILES>
COc1cc(C)ccc1NC(=O)C1(c2ccccc2C(C)(C)C)CCN(c2ccc(C3(C(=O)O)CC3)cc2)CC1

> <Toxicity_Alerts>
DILI, Basic N (hERG Warning)

> <Type>
Analog

> <POSE_NUMBER>
20

> <LibDockScore>
104.6065

> <HotSpots>
-6.33,-26.32,51.98,A,57,22
0.27,-22.52,46.78,A,23,24
-4.13,-31.12,56.59,A,79,37

$$$$
12
  SciTegic05082609073D

 80 84  0  0  0  0            999 V2000
   -0.8652  -24.5499   52.3843 O   0  0  0  1  0  0
   -1.2999  -24.6445   51.2566 C   0  0  0  1  0  0
   -0.4950  -24.3152   50.1729 N   0  0  0  1  0  0
   -2.7532  -25.1212   51.1119 C   0  0  0  1  0  0
    0.8397  -23.9112   50.2326 C   0  0  0  1  0  0
   -2.8549  -26.5278   51.7656 C   0  0  0  1  0  0
   -3.5546  -23.9818   51.8615 C   0  0  0  1  0  0
   -3.4437  -25.0412   49.6963 C   0  0  0  1  0  0
    1.7433  -24.3685   51.2360 C   0  0  0  1  0  0
    1.3116  -23.0241   49.2374 C   0  0  0  1  0  0
   -2.5861  -27.8143   51.1392 C   0  0  0  1  0  0
   -3.2449  -26.5420   53.1373 C   0  0  0  1  0  0
   -5.0978  -24.1617   51.9423 C   0  0  0  1  0  0
   -4.9897  -25.1975   49.6790 C   0  0  0  1  0  0
    1.3241  -25.2533   52.1381 O   0  0  0  1  0  0
    3.0716  -23.8852   51.2372 C   0  0  0  1  0  0
    2.6364  -22.5645   49.2502 C   0  0  0  1  0  0
   -2.8847  -28.9830   51.8944 C   0  0  0  1  0  0
   -2.0086  -28.0939   49.7340 C   0  0  0  1  0  0
   -3.4753  -27.7203   53.8509 C   0  0  0  1  0  0
   -5.5392  -25.2706   51.0566 N   0  0  0  1  0  0
    2.1203  -25.6926   53.2409 C   0  0  0  1  0  0
    3.5211  -22.9879   50.2550 C   0  0  0  1  0  0
   -3.3077  -28.9440   53.2213 C   0  0  0  1  0  0
   -3.1538  -28.3370   48.7210 C   0  0  0  1  0  0
   -1.1446  -29.3995   49.7031 C   0  0  0  1  0  0
   -0.9855  -27.0532   49.2239 C   0  0  0  1  0  0
   -6.2801  -26.3450   51.5362 C   0  0  0  1  0  0
    4.9316  -22.4961   50.2854 C   0  0  0  1  0  0
   -7.2500  -26.1832   52.5532 C   0  0  0  1  0  0
   -6.0330  -27.6436   51.0377 C   0  0  0  1  0  0
   -7.8528  -27.3065   53.1464 C   0  0  0  1  0  0
   -6.6342  -28.7621   51.6270 C   0  0  0  1  0  0
   -7.4985  -28.5986   52.7216 C   0  0  0  1  0  0
   -8.0113  -29.8127   53.4564 C   0  0  0  1  0  0
   -7.1086  -30.1736   54.6338 C   0  0  0  1  0  0
   -9.5087  -30.0529   53.5545 C   0  0  0  1  0  0
   -8.6607  -30.9445   52.6791 C   0  0  0  1  0  0
   -5.9072  -30.1712   54.4740 O   0  0  0  1  0  0
   -7.6552  -30.4739   55.8106 O   0  0  0  1  0  0
   -0.9400  -24.3771   49.2018 H   0  0
   -3.1651  -23.8954   52.8758 H   0  0
   -3.3448  -23.0309   51.3716 H   0  0
   -3.0128  -25.8109   49.0560 H   0  0
   -3.1892  -24.0843   49.2407 H   0  0
    0.6358  -22.6928   48.4490 H   0  0
   -3.3689  -25.5895   53.6525 H   0  0
   -5.3818  -24.3871   52.9702 H   0  0
   -5.5868  -23.2379   51.6332 H   0  0
   -5.2538  -26.1073   49.1399 H   0  0
   -5.4312  -24.3453   49.1624 H   0  0
    3.7600  -24.2152   52.0152 H   0  0
    2.9804  -21.8766   48.4779 H   0  0
   -2.7774  -29.9545   51.4119 H   0  0
   -3.7846  -27.6781   54.8952 H   0  0
    2.3920  -24.7663   53.7471 H   0  0
    3.0296  -26.0653   52.7693 H   0  0
    1.6480  -26.4208   53.9003 H   0  0
   -3.5057  -29.8700   53.7611 H   0  0
   -3.7911  -27.4535   48.6829 H   0  0
   -3.7448  -29.1925   49.0480 H   0  0
   -2.7388  -28.5335   47.7324 H   0  0
   -1.7729  -30.2347   50.0126 H   0  0
   -0.3290  -29.2888   50.4178 H   0  0
   -0.7490  -29.5747   48.7026 H   0  0
   -0.1768  -27.0188   49.9539 H   0  0
   -1.4872  -26.0855   49.2297 H   0  0
   -0.6115  -27.2993   48.2301 H   0  0
    5.5457  -23.3964   50.2639 H   0  0
    5.0536  -22.0473   51.2712 H   0  0
    5.1766  -21.8047   49.4791 H   0  0
   -7.5317  -25.1819   52.8789 H   0  0
   -5.3670  -27.7761   50.1850 H   0  0
   -8.5940  -27.1754   53.9348 H   0  0
   -6.4315  -29.7593   51.2364 H   0  0
  -10.0700  -29.3276   52.9655 H   0  0
   -9.7743  -30.5437   54.4908 H   0  0
   -8.4760  -31.9106   53.1487 H   0  0
   -8.7702  -30.6938   51.6240 H   0  0
   -8.3141  -31.2658   55.6075 H   0  0
  1  2  2  0
  2  3  1  0
  2  4  1  0
  3  5  1  0
  4  6  1  0
  4  7  1  0
  4  8  1  0
  5  9  2  0
  5 10  1  0
  6 11  2  0
  6 12  1  0
  7 13  1  0
  8 14  1  0
  9 15  1  0
  9 16  1  0
 10 17  2  0
 11 18  1  0
 11 19  1  0
 12 20  2  0
 13 21  1  0
 14 21  1  0
 15 22  1  0
 16 23  2  0
 17 23  1  0
 18 24  2  0
 19 25  1  0
 19 26  1  0
 19 27  1  0
 20 24  1  0
 21 28  1  0
 23 29  1  0
 28 30  2  0
 28 31  1  0
 30 32  1  0
 31 33  2  0
 32 34  2  0
 33 34  1  0
 34 35  1  0
 35 36  1  0
 35 37  1  0
 35 38  1  0
 36 39  2  0
 36 40  1  0
 37 38  1  0
  3 41  1  0
  7 42  1  0
  7 43  1  0
  8 44  1  0
  8 45  1  0
 10 46  1  0
 12 47  1  0
 13 48  1  0
 13 49  1  0
 14 50  1  0
 14 51  1  0
 16 52  1  0
 17 53  1  0
 18 54  1  0
 20 55  1  0
 22 56  1  0
 22 57  1  0
 22 58  1  0
 24 59  1  0
 25 60  1  0
 25 61  1  0
 25 62  1  0
 26 63  1  0
 26 64  1  0
 26 65  1  0
 27 66  1  0
 27 67  1  0
 27 68  1  0
 29 69  1  0
 29 70  1  0
 29 71  1  0
 30 72  1  0
 31 73  1  0
 32 74  1  0
 33 75  1  0
 37 76  1  0
 37 77  1  0
 38 78  1  0
 38 79  1  0
 40 80  1  0
M  END
> <Name>
12

> <AbsoluteEnergy>
98.3639

> <Clean Energy>
142.836

> <Column 1>
12

> <ConfNumber>
82

> <Filter_Pass>
Failed

> <IC50_nM>
73.84

> <LogP>
6.59

> <MOL_NUMBER>
9

> <QSAR_Score_pIC50>
7.132

> <RelativeEnergy>
13.16

> <SMILES>
COc1cc(C)ccc1NC(=O)C1(c2ccccc2C(C)(C)C)CCN(c2ccc(C3(C(=O)O)CC3)cc2)CC1

> <Toxicity_Alerts>
DILI, Basic N (hERG Warning)

> <Type>
Analog

> <POSE_NUMBER>
21

> <LibDockScore>
96.8947

> <HotSpots>
3.07,-24.52,50.38,A,43,16
-1.93,-29.12,49.19,A,34,26
-9.53,-30.12,52.78,A,62,38

$$$$
12
  SciTegic05082609073D

 80 84  0  0  0  0            999 V2000
   -2.6650  -23.2733   51.8237 O   0  0  0  1  0  0
   -3.0226  -24.4304   51.8003 C   0  0  0  1  0  0
   -2.1945  -25.4330   52.3009 N   0  0  0  1  0  0
   -4.4216  -24.7775   51.2445 C   0  0  0  1  0  0
   -0.8041  -25.4243   52.4471 C   0  0  0  1  0  0
   -4.9803  -23.6354   50.3704 C   0  0  0  1  0  0
   -5.2343  -25.0037   52.5947 C   0  0  0  1  0  0
   -4.5393  -26.1246   50.4241 C   0  0  0  1  0  0
    0.0937  -24.7154   51.5993 C   0  0  0  1  0  0
   -0.2740  -26.1876   53.5142 C   0  0  0  1  0  0
   -4.6149  -23.3456   48.9917 C   0  0  0  1  0  0
   -5.9601  -22.7997   50.9743 C   0  0  0  1  0  0
   -6.6367  -25.6396   52.4371 C   0  0  0  1  0  0
   -5.9616  -26.7234   50.3562 C   0  0  0  1  0  0
   -0.3841  -24.0511   50.5514 O   0  0  0  1  0  0
    1.4817  -24.7500   51.8821 C   0  0  0  1  0  0
    1.1042  -26.2174   53.7713 C   0  0  0  1  0  0
   -5.4049  -22.3878   48.3001 C   0  0  0  1  0  0
   -3.4720  -23.9365   48.1300 C   0  0  0  1  0  0
   -6.6580  -21.8194   50.2715 C   0  0  0  1  0  0
   -6.3958  -26.9211   51.7501 N   0  0  0  1  0  0
    0.4556  -23.4665   49.5499 C   0  0  0  1  0  0
    1.9888  -25.4923   52.9609 C   0  0  0  1  0  0
   -6.4000  -21.6319   48.9202 C   0  0  0  1  0  0
   -2.5074  -24.9554   48.7858 C   0  0  0  1  0  0
   -4.0490  -24.5322   46.8199 C   0  0  0  1  0  0
   -2.4769  -22.8087   47.7069 C   0  0  0  1  0  0
   -6.3268  -28.1274   52.4294 C   0  0  0  1  0  0
    3.4559  -25.5188   53.2501 C   0  0  0  1  0  0
   -6.7232  -28.2456   53.7819 C   0  0  0  1  0  0
   -5.7684  -29.2549   51.7869 C   0  0  0  1  0  0
   -6.2651  -29.3296   54.5482 C   0  0  0  1  0  0
   -5.3133  -30.3359   52.5497 C   0  0  0  1  0  0
   -5.4367  -30.2927   53.9467 C   0  0  0  1  0  0
   -4.6080  -31.2324   54.7799 C   0  0  0  1  0  0
   -3.3202  -30.5243   55.2272 C   0  0  0  1  0  0
   -5.2735  -32.2491   55.6911 C   0  0  0  1  0  0
   -4.5709  -32.7110   54.4346 C   0  0  0  1  0  0
   -3.1142  -30.3387   56.4025 O   0  0  0  1  0  0
   -2.4308  -30.1197   54.3042 O   0  0  0  1  0  0
   -2.6884  -26.3287   52.6152 H   0  0
   -5.3455  -24.0441   53.0996 H   0  0
   -4.6411  -25.6356   53.2558 H   0  0
   -4.1879  -25.9469   49.4077 H   0  0
   -3.8717  -26.8640   50.8664 H   0  0
   -0.9491  -26.7628   54.1478 H   0  0
   -6.1748  -22.9320   52.0347 H   0  0
   -7.0778  -25.8176   53.4178 H   0  0
   -7.2707  -24.9994   51.8236 H   0  0
   -5.9365  -27.6812   49.8364 H   0  0
   -6.6328  -26.0268   49.8540 H   0  0
    2.1697  -24.1891   51.2495 H   0  0
    1.4889  -26.8063   54.6040 H   0  0
   -5.2249  -22.2368   47.2357 H   0  0
   -7.4011  -21.2043   50.7790 H   0  0
    1.0629  -24.3008   49.1988 H   0  0
    1.1206  -22.8136   50.1153 H   0  0
   -0.0691  -22.9506   48.7458 H   0  0
   -6.9704  -20.8999   48.3484 H   0  0
   -3.1425  -25.7588   49.1590 H   0  0
   -2.0901  -24.4443   49.6534 H   0  0
   -1.7341  -25.3203   48.1098 H   0  0
   -4.5569  -23.7467   46.2603 H   0  0
   -4.7625  -25.3187   47.0657 H   0  0
   -3.2412  -24.9468   46.2168 H   0  0
   -2.0569  -22.3474   48.6007 H   0  0
   -3.0135  -22.0546   47.1311 H   0  0
   -1.6753  -23.2310   47.1010 H   0  0
    3.7327  -24.4711   53.3680 H   0  0
    3.9134  -25.8656   52.3235 H   0  0
    3.7334  -26.1274   54.1107 H   0  0
   -7.3809  -27.4991   54.2272 H   0  0
   -5.6923  -29.2826   50.6999 H   0  0
   -6.5485  -29.4230   55.5966 H   0  0
   -4.8671  -31.2034   52.0633 H   0  0
   -6.3566  -32.2487   55.5685 H   0  0
   -4.6739  -32.4420   56.5807 H   0  0
   -3.5983  -33.1501   54.6567 H   0  0
   -5.2806  -32.9552   53.6442 H   0  0
   -2.9776  -29.4973   53.6592 H   0  0
  1  2  2  0
  2  3  1  0
  2  4  1  0
  3  5  1  0
  4  6  1  0
  4  7  1  0
  4  8  1  0
  5  9  2  0
  5 10  1  0
  6 11  2  0
  6 12  1  0
  7 13  1  0
  8 14  1  0
  9 15  1  0
  9 16  1  0
 10 17  2  0
 11 18  1  0
 11 19  1  0
 12 20  2  0
 13 21  1  0
 14 21  1  0
 15 22  1  0
 16 23  2  0
 17 23  1  0
 18 24  2  0
 19 25  1  0
 19 26  1  0
 19 27  1  0
 20 24  1  0
 21 28  1  0
 23 29  1  0
 28 30  2  0
 28 31  1  0
 30 32  1  0
 31 33  2  0
 32 34  2  0
 33 34  1  0
 34 35  1  0
 35 36  1  0
 35 37  1  0
 35 38  1  0
 36 39  2  0
 36 40  1  0
 37 38  1  0
  3 41  1  0
  7 42  1  0
  7 43  1  0
  8 44  1  0
  8 45  1  0
 10 46  1  0
 12 47  1  0
 13 48  1  0
 13 49  1  0
 14 50  1  0
 14 51  1  0
 16 52  1  0
 17 53  1  0
 18 54  1  0
 20 55  1  0
 22 56  1  0
 22 57  1  0
 22 58  1  0
 24 59  1  0
 25 60  1  0
 25 61  1  0
 25 62  1  0
 26 63  1  0
 26 64  1  0
 26 65  1  0
 27 66  1  0
 27 67  1  0
 27 68  1  0
 29 69  1  0
 29 70  1  0
 29 71  1  0
 30 72  1  0
 31 73  1  0
 32 74  1  0
 33 75  1  0
 37 76  1  0
 37 77  1  0
 38 78  1  0
 38 79  1  0
 40 80  1  0
M  END
> <Name>
12

> <AbsoluteEnergy>
103.874

> <Clean Energy>
142.836

> <Column 1>
12

> <ConfNumber>
128

> <Filter_Pass>
Failed

> <IC50_nM>
73.84

> <LogP>
6.59

> <MOL_NUMBER>
9

> <QSAR_Score_pIC50>
7.132

> <RelativeEnergy>
18.6705

> <SMILES>
COc1cc(C)ccc1NC(=O)C1(c2ccccc2C(C)(C)C)CCN(c2ccc(C3(C(=O)O)CC3)cc2)CC1

> <Toxicity_Alerts>
DILI, Basic N (hERG Warning)

> <Type>
Analog

> <POSE_NUMBER>
22

> <LibDockScore>
92.7662

> <HotSpots>
-6.33,-26.32,51.98,A,57,13
-4.93,-23.52,47.59,A,26,18
-4.33,-32.92,55.19,A,75,38

$$$$
12
  SciTegic05082609073D

 80 84  0  0  0  0            999 V2000
   -0.4665  -22.7544   49.2976 O   0  0  0  1  0  0
   -1.0066  -23.8341   49.4115 C   0  0  0  1  0  0
   -0.5777  -24.7022   50.4072 N   0  0  0  1  0  0
   -2.1878  -24.2097   48.4622 C   0  0  0  1  0  0
    0.4593  -24.5179   51.3238 C   0  0  0  1  0  0
   -2.2485  -23.2272   47.2534 C   0  0  0  1  0  0
   -3.3840  -24.1360   49.4766 C   0  0  0  1  0  0
   -1.9788  -25.6426   47.8620 C   0  0  0  1  0  0
    0.3326  -25.0579   52.6336 C   0  0  0  1  0  0
    1.6419  -23.8194   50.9814 C   0  0  0  1  0  0
   -3.3965  -22.5929   46.6210 C   0  0  0  1  0  0
   -0.9726  -22.9296   46.6954 C   0  0  0  1  0  0
   -4.2740  -25.3825   49.6688 C   0  0  0  1  0  0
   -2.4051  -26.8740   48.6959 C   0  0  0  1  0  0
   -0.7798  -25.7217   52.9505 O   0  0  0  1  0  0
    1.3842  -24.8725   53.5621 C   0  0  0  1  0  0
    2.6690  -23.6392   51.9180 C   0  0  0  1  0  0
   -3.1335  -21.4626   45.7972 C   0  0  0  1  0  0
   -4.8805  -23.0193   46.7001 C   0  0  0  1  0  0
   -0.7660  -21.8912   45.7853 C   0  0  0  1  0  0
   -3.5073  -26.6613   49.6881 N   0  0  0  1  0  0
   -0.9454  -26.4001   54.2005 C   0  0  0  1  0  0
    2.5470  -24.1654   53.2128 C   0  0  0  1  0  0
   -1.8465  -21.1181   45.3788 C   0  0  0  1  0  0
   -5.7606  -22.3280   45.6068 C   0  0  0  1  0  0
   -5.0563  -24.5082   46.3300 C   0  0  0  1  0  0
   -5.5653  -22.6540   48.0421 C   0  0  0  1  0  0
   -3.8349  -27.6642   50.6024 C   0  0  0  1  0  0
    3.6373  -23.9813   54.2174 C   0  0  0  1  0  0
   -4.9815  -27.5408   51.4223 C   0  0  0  1  0  0
   -3.0372  -28.8240   50.7350 C   0  0  0  1  0  0
   -5.3259  -28.5508   52.3372 C   0  0  0  1  0  0
   -3.3835  -29.8339   51.6473 C   0  0  0  1  0  0
   -4.5289  -29.7034   52.4509 C   0  0  0  1  0  0
   -4.8931  -30.7968   53.4294 C   0  0  0  1  0  0
   -4.3877  -30.5262   54.8413 C   0  0  0  1  0  0
   -4.8916  -32.2404   52.9497 C   0  0  0  1  0  0
   -6.2023  -31.5519   53.2424 C   0  0  0  1  0  0
   -5.1854  -30.3863   55.7405 O   0  0  0  1  0  0
   -3.0728  -30.4551   55.0497 O   0  0  0  1  0  0
   -1.1085  -25.6283   50.4811 H   0  0
   -4.0272  -23.3066   49.1826 H   0  0
   -2.9841  -23.8555   50.4510 H   0  0
   -0.9233  -25.7549   47.6140 H   0  0
   -2.5012  -25.6875   46.9064 H   0  0
    1.7554  -23.4160   49.9752 H   0  0
   -0.1194  -23.5396   46.9920 H   0  0
   -4.8203  -25.2858   50.6070 H   0  0
   -5.0058  -25.4236   48.8620 H   0  0
   -1.5321  -27.2495   49.2298 H   0  0
   -2.7089  -27.6660   48.0114 H   0  0
    1.2905  -25.2857   54.5664 H   0  0
    3.5668  -23.0876   51.6390 H   0  0
   -3.9705  -20.8406   45.4800 H   0  0
    0.2325  -21.6891   45.3977 H   0  0
   -0.7645  -25.6261   54.9463 H   0  0
   -0.0958  -27.0815   54.2450 H   0  0
   -1.9035  -26.9032   54.3311 H   0  0
   -1.6909  -20.2498   44.7385 H   0  0
   -5.3564  -22.5903   44.6291 H   0  0
   -5.6826  -21.2490   45.7398 H   0  0
   -6.7998  -22.6470   45.6869 H   0  0
   -4.4662  -25.1119   47.0195 H   0  0
   -4.6861  -24.6627   45.3165 H   0  0
   -6.1070  -24.7918   46.3908 H   0  0
   -5.4866  -21.5742   48.1686 H   0  0
   -5.0020  -23.1361   48.8410 H   0  0
   -6.6080  -22.9713   48.0566 H   0  0
    3.9056  -24.9900   54.5314 H   0  0
    3.1587  -23.4966   55.0684 H   0  0
    4.4932  -23.4190   53.8440 H   0  0
   -5.6059  -26.6508   51.3434 H   0  0
   -2.1429  -28.9356   50.1219 H   0  0
   -6.2134  -28.4401   52.9603 H   0  0
   -2.7603  -30.7241   51.7326 H   0  0
   -4.6107  -32.9271   53.7482 H   0  0
   -4.7014  -32.3051   51.8784 H   0  0
   -6.7111  -31.2492   52.3272 H   0  0
   -6.6196  -31.8699   54.1978 H   0  0
   -2.7306  -29.7072   54.3970 H   0  0
  1  2  2  0
  2  3  1  0
  2  4  1  0
  3  5  1  0
  4  6  1  0
  4  7  1  0
  4  8  1  0
  5  9  2  0
  5 10  1  0
  6 11  2  0
  6 12  1  0
  7 13  1  0
  8 14  1  0
  9 15  1  0
  9 16  1  0
 10 17  2  0
 11 18  1  0
 11 19  1  0
 12 20  2  0
 13 21  1  0
 14 21  1  0
 15 22  1  0
 16 23  2  0
 17 23  1  0
 18 24  2  0
 19 25  1  0
 19 26  1  0
 19 27  1  0
 20 24  1  0
 21 28  1  0
 23 29  1  0
 28 30  2  0
 28 31  1  0
 30 32  1  0
 31 33  2  0
 32 34  2  0
 33 34  1  0
 34 35  1  0
 35 36  1  0
 35 37  1  0
 35 38  1  0
 36 39  2  0
 36 40  1  0
 37 38  1  0
  3 41  1  0
  7 42  1  0
  7 43  1  0
  8 44  1  0
  8 45  1  0
 10 46  1  0
 12 47  1  0
 13 48  1  0
 13 49  1  0
 14 50  1  0
 14 51  1  0
 16 52  1  0
 17 53  1  0
 18 54  1  0
 20 55  1  0
 22 56  1  0
 22 57  1  0
 22 58  1  0
 24 59  1  0
 25 60  1  0
 25 61  1  0
 25 62  1  0
 26 63  1  0
 26 64  1  0
 26 65  1  0
 27 66  1  0
 27 67  1  0
 27 68  1  0
 29 69  1  0
 29 70  1  0
 29 71  1  0
 30 72  1  0
 31 73  1  0
 32 74  1  0
 33 75  1  0
 37 76  1  0
 37 77  1  0
 38 78  1  0
 38 79  1  0
 40 80  1  0
M  END
> <Name>
12

> <AbsoluteEnergy>
104.167

> <Clean Energy>
142.836

> <Column 1>
12

> <ConfNumber>
130

> <Filter_Pass>
Failed

> <IC50_nM>
73.84

> <LogP>
6.59

> <MOL_NUMBER>
9

> <QSAR_Score_pIC50>
7.132

> <RelativeEnergy>
18.9627

> <SMILES>
COc1cc(C)ccc1NC(=O)C1(c2ccccc2C(C)(C)C)CCN(c2ccc(C3(C(=O)O)CC3)cc2)CC1

> <Toxicity_Alerts>
DILI, Basic N (hERG Warning)

> <Type>
Analog

> <POSE_NUMBER>
23

> <LibDockScore>
88.6898

> <HotSpots>
0.87,-24.32,52.78,A,63,10
-0.93,-28.12,54.98,A,74,22
-5.13,-22.92,46.19,A,18,25

$$$$
12
  SciTegic05082609073D

 80 84  0  0  0  0            999 V2000
   -3.0575  -25.6907   49.9196 O   0  0  0  1  0  0
   -2.4862  -25.3127   50.9186 C   0  0  0  1  0  0
   -2.6749  -24.0146   51.3838 N   0  0  0  1  0  0
   -1.5982  -26.3010   51.6957 C   0  0  0  1  0  0
   -3.7190  -23.1735   51.0154 C   0  0  0  1  0  0
   -0.1190  -25.8744   51.7603 C   0  0  0  1  0  0
   -2.3551  -26.1865   53.1109 C   0  0  0  1  0  0
   -1.6791  -27.7806   51.1261 C   0  0  0  1  0  0
   -5.0625  -23.6318   50.9143 C   0  0  0  1  0  0
   -3.4254  -21.8180   50.7530 C   0  0  0  1  0  0
    0.6615  -25.2368   50.7093 C   0  0  0  1  0  0
    0.5286  -26.1419   52.9945 C   0  0  0  1  0  0
   -2.5282  -27.4596   53.9605 C   0  0  0  1  0  0
   -1.8256  -28.9292   52.1403 C   0  0  0  1  0  0
   -5.3457  -24.8972   51.2249 O   0  0  0  1  0  0
   -6.0657  -22.7236   50.5033 C   0  0  0  1  0  0
   -4.4360  -20.9300   50.3577 C   0  0  0  1  0  0
    1.9476  -24.7447   51.0764 C   0  0  0  1  0  0
    0.2718  -25.0229   49.2216 C   0  0  0  1  0  0
    1.8173  -25.6966   53.2844 C   0  0  0  1  0  0
   -2.9007  -28.5499   53.0553 N   0  0  0  1  0  0
   -6.6825  -25.4061   51.2632 C   0  0  0  1  0  0
   -5.7593  -21.3796   50.2231 C   0  0  0  1  0  0
    2.5196  -24.9704   52.3309 C   0  0  0  1  0  0
   -0.4592  -26.2160   48.5685 C   0  0  0  1  0  0
    1.5265  -24.8710   48.3009 C   0  0  0  1  0  0
   -0.5515  -23.7285   49.0135 C   0  0  0  1  0  0
   -4.1803  -29.0542   52.9580 C   0  0  0  1  0  0
   -6.8252  -20.4292   49.7854 C   0  0  0  1  0  0
   -5.2574  -28.1503   53.0474 C   0  0  0  1  0  0
   -4.4371  -30.4268   52.7606 C   0  0  0  1  0  0
   -6.5742  -28.6055   52.9347 C   0  0  0  1  0  0
   -5.7650  -30.8852   52.6626 C   0  0  0  1  0  0
   -6.8380  -29.9747   52.7498 C   0  0  0  1  0  0
   -8.2735  -30.4377   52.6545 C   0  0  0  1  0  0
   -9.0440  -30.2320   53.9519 C   0  0  0  1  0  0
   -8.6519  -31.5767   51.7189 C   0  0  0  1  0  0
   -9.0231  -30.1583   51.3612 C   0  0  0  1  0  0
   -9.7696  -31.1093   54.3625 O   0  0  0  1  0  0
   -8.8898  -29.0741   54.5972 O   0  0  0  1  0  0
   -1.9587  -23.6331   52.0812 H   0  0
   -1.8319  -25.4472   53.7174 H   0  0
   -3.3444  -25.7639   52.9352 H   0  0
   -0.7867  -27.9677   50.5289 H   0  0
   -2.5162  -27.8341   50.4301 H   0  0
   -2.4021  -21.4577   50.8588 H   0  0
   -0.0049  -26.7207   53.7485 H   0  0
   -3.3177  -27.3069   54.6964 H   0  0
   -1.5887  -27.6997   54.4583 H   0  0
   -2.0903  -29.8497   51.6199 H   0  0
   -0.8954  -29.0545   52.6945 H   0  0
   -7.0939  -23.0710   50.4019 H   0  0
   -4.1934  -19.8870   50.1542 H   0  0
    2.5109  -24.1656   50.3447 H   0  0
    2.2702  -25.9164   54.2512 H   0  0
   -7.0764  -25.1833   50.2716 H   0  0
   -7.1959  -24.7424   51.9589 H   0  0
   -6.7713  -26.4587   51.5320 H   0  0
    3.5108  -24.5791   52.5601 H   0  0
   -1.3549  -26.4069   49.1596 H   0  0
    0.1969  -27.0820   48.6560 H   0  0
   -0.7107  -26.0171   47.5267 H   0  0
    2.1316  -25.7728   48.3941 H   0  0
    2.1087  -24.0191   48.6523 H   0  0
    1.2268  -24.7222   47.2635 H   0  0
    0.0444  -22.8843   49.3603 H   0  0
   -1.4536  -23.7951   49.6217 H   0  0
   -0.8119  -23.6018   47.9627 H   0  0
   -7.5762  -20.4740   50.5741 H   0  0
   -7.2639  -20.8937   48.9023 H   0  0
   -6.4728  -19.4152   49.5966 H   0  0
   -5.0626  -27.0895   53.2054 H   0  0
   -3.6092  -31.1316   52.6840 H   0  0
   -7.4001  -27.8964   52.9903 H   0  0
   -5.9639  -31.9472   52.5189 H   0  0
   -9.5097  -32.1346   52.0945 H   0  0
   -7.7927  -31.9247   51.1456 H   0  0
   -8.3627  -29.7504   50.5960 H   0  0
  -10.0788  -29.9597   51.5462 H   0  0
   -9.1500  -28.3293   53.9044 H   0  0
  1  2  2  0
  2  3  1  0
  2  4  1  0
  3  5  1  0
  4  6  1  0
  4  7  1  0
  4  8  1  0
  5  9  2  0
  5 10  1  0
  6 11  2  0
  6 12  1  0
  7 13  1  0
  8 14  1  0
  9 15  1  0
  9 16  1  0
 10 17  2  0
 11 18  1  0
 11 19  1  0
 12 20  2  0
 13 21  1  0
 14 21  1  0
 15 22  1  0
 16 23  2  0
 17 23  1  0
 18 24  2  0
 19 25  1  0
 19 26  1  0
 19 27  1  0
 20 24  1  0
 21 28  1  0
 23 29  1  0
 28 30  2  0
 28 31  1  0
 30 32  1  0
 31 33  2  0
 32 34  2  0
 33 34  1  0
 34 35  1  0
 35 36  1  0
 35 37  1  0
 35 38  1  0
 36 39  2  0
 36 40  1  0
 37 38  1  0
  3 41  1  0
  7 42  1  0
  7 43  1  0
  8 44  1  0
  8 45  1  0
 10 46  1  0
 12 47  1  0
 13 48  1  0
 13 49  1  0
 14 50  1  0
 14 51  1  0
 16 52  1  0
 17 53  1  0
 18 54  1  0
 20 55  1  0
 22 56  1  0
 22 57  1  0
 22 58  1  0
 24 59  1  0
 25 60  1  0
 25 61  1  0
 25 62  1  0
 26 63  1  0
 26 64  1  0
 26 65  1  0
 27 66  1  0
 27 67  1  0
 27 68  1  0
 29 69  1  0
 29 70  1  0
 29 71  1  0
 30 72  1  0
 31 73  1  0
 32 74  1  0
 33 75  1  0
 37 76  1  0
 37 77  1  0
 38 78  1  0
 38 79  1  0
 40 80  1  0
M  END
> <Name>
12

> <AbsoluteEnergy>
99.4005

> <Clean Energy>
142.836

> <Column 1>
12

> <ConfNumber>
93

> <Filter_Pass>
Failed

> <IC50_nM>
73.84

> <LogP>
6.59

> <MOL_NUMBER>
9

> <QSAR_Score_pIC50>
7.132

> <RelativeEnergy>
14.1966

> <SMILES>
COc1cc(C)ccc1NC(=O)C1(c2ccccc2C(C)(C)C)CCN(c2ccc(C3(C(=O)O)CC3)cc2)CC1

> <Toxicity_Alerts>
DILI, Basic N (hERG Warning)

> <Type>
Analog

> <POSE_NUMBER>
24

> <LibDockScore>
75.2531

> <HotSpots>
-3.33,-21.92,50.38,A,47,10
-6.13,-22.12,49.98,A,41,16
1.67,-24.32,50.98,A,50,18

$$$$
14
  SciTegic05082609073D

 75 80  0  0  0  0            999 V2000
   -1.8013  -23.2902   49.4979 O   0  0  0  1  0  0
   -1.7369  -24.4328   49.8989 C   0  0  0  1  0  0
   -0.5500  -25.1389   49.7692 N   0  0  0  1  0  0
   -2.9696  -25.0861   50.5523 C   0  0  0  1  0  0
    0.7281  -24.5925   49.7594 C   0  0  0  1  0  0
   -4.2127  -24.2154   50.2799 C   0  0  0  1  0  0
   -2.6520  -25.2715   52.0760 C   0  0  0  1  0  0
   -3.1698  -26.5504   50.0477 C   0  0  0  1  0  0
    1.1454  -23.6344   48.7958 C   0  0  0  1  0  0
    1.6403  -25.0302   50.7441 C   0  0  0  1  0  0
   -4.6398  -23.8747   48.9549 C   0  0  0  1  0  0
   -4.9653  -23.6950   51.3643 C   0  0  0  1  0  0
   -3.7037  -26.0770   52.8807 C   0  0  0  1  0  0
   -4.3135  -27.2969   50.7523 C   0  0  0  1  0  0
    0.3006  -23.2786   47.8293 O   0  0  0  1  0  0
    2.4542  -23.1028   48.8823 C   0  0  0  1  0  0
    2.9385  -24.5041   50.8041 C   0  0  0  1  0  0
   -5.8086  -23.1015   48.7740 C   0  0  0  1  0  0
   -3.8647  -24.3047   47.7187 C   0  0  0  1  0  0
   -6.1198  -22.9280   51.1647 C   0  0  0  1  0  0
   -4.0673  -27.3676   52.2216 N   0  0  0  1  0  0
    0.6251  -22.3030   46.8342 C   0  0  0  1  0  0
    3.3492  -23.5316   49.8781 C   0  0  0  1  0  0
   -6.5465  -22.6369   49.8678 C   0  0  0  1  0  0
   -4.5947  -24.9989   46.5805 C   0  0  0  1  0  0
   -3.9738  -23.6431   46.3498 C   0  0  0  1  0  0
   -4.1849  -28.5635   52.9285 C   0  0  0  1  0  0
    4.7249  -22.9521   49.9410 C   0  0  0  1  0  0
   -3.4957  -28.7682   54.1463 C   0  0  0  1  0  0
   -5.0031  -29.6068   52.4366 C   0  0  0  1  0  0
   -3.6308  -29.9735   54.8550 C   0  0  0  1  0  0
   -5.1326  -30.8144   53.1423 C   0  0  0  1  0  0
   -4.4508  -31.0005   54.3567 C   0  0  0  1  0  0
   -4.5939  -32.2956   55.1194 C   0  0  0  1  0  0
   -3.7946  -33.4321   54.5047 C   0  0  0  1  0  0
   -5.9207  -32.6274   55.7854 C   0  0  0  1  0  0
   -4.7304  -32.2527   56.6341 C   0  0  0  1  0  0
   -3.9368  -33.6835   53.3300 O   0  0  0  1  0  0
   -2.9569  -34.1229   55.2763 O   0  0  0  1  0  0
   -0.6252  -26.2014   49.6674 H   0  0
   -2.5456  -24.2875   52.5326 H   0  0
   -1.6867  -25.7684   52.1724 H   0  0
   -3.3710  -26.5299   48.9766 H   0  0
   -2.2437  -27.1056   50.1969 H   0  0
    1.3316  -25.7861   51.4662 H   0  0
   -4.6350  -23.8983   52.3830 H   0  0
   -3.3075  -26.2863   53.8744 H   0  0
   -4.6036  -25.4730   52.9964 H   0  0
   -4.3871  -28.3077   50.3510 H   0  0
   -5.2522  -26.7739   50.5695 H   0  0
    2.7739  -22.3476   48.1642 H   0  0
    3.6307  -24.8508   51.5714 H   0  0
   -6.1412  -22.8628   47.7638 H   0  0
   -3.0232  -24.5108   48.3801 H   0  0
   -6.6845  -22.5588   52.0208 H   0  0
    1.5438  -22.6815   46.3861 H   0  0
    0.9008  -21.4210   47.4123 H   0  0
   -0.1586  -22.1071   46.1024 H   0  0
   -7.4510  -22.0500   49.7081 H   0  0
   -5.6762  -24.9314   46.6983 H   0  0
   -3.9919  -25.7967   46.1467 H   0  0
   -3.0388  -23.7177   45.7945 H   0  0
   -4.7235  -22.8518   46.3480 H   0  0
    4.5753  -21.8757   50.0255 H   0  0
    5.1568  -23.1405   48.9581 H   0  0
    5.3370  -23.3526   50.7491 H   0  0
   -2.8520  -27.9814   54.5397 H   0  0
   -5.5402  -29.4721   51.4977 H   0  0
   -3.0975  -30.1129   55.7953 H   0  0
   -5.7641  -31.6098   52.7465 H   0  0
   -6.1032  -33.7019   55.8003 H   0  0
   -6.6285  -31.8030   55.6984 H   0  0
   -4.8037  -31.2287   57.0003 H   0  0
   -4.2775  -33.1274   57.1008 H   0  0
   -3.5473  -34.4857   56.0652 H   0  0
  1  2  2  0
  2  3  1  0
  2  4  1  0
  3  5  1  0
  4  6  1  0
  4  7  1  0
  4  8  1  0
  5  9  2  0
  5 10  1  0
  6 11  2  0
  6 12  1  0
  7 13  1  0
  8 14  1  0
  9 15  1  0
  9 16  1  0
 10 17  2  0
 11 18  1  0
 11 19  1  0
 12 20  2  0
 13 21  1  0
 14 21  1  0
 15 22  1  0
 16 23  2  0
 17 23  1  0
 18 24  2  0
 19 25  1  0
 19 26  1  0
 20 24  1  0
 21 27  1  0
 23 28  1  0
 25 26  1  0
 27 29  2  0
 27 30  1  0
 29 31  1  0
 30 32  2  0
 31 33  2  0
 32 33  1  0
 33 34  1  0
 34 35  1  0
 34 36  1  0
 34 37  1  0
 35 38  2  0
 35 39  1  0
 36 37  1  0
  3 40  1  0
  7 41  1  0
  7 42  1  0
  8 43  1  0
  8 44  1  0
 10 45  1  0
 12 46  1  0
 13 47  1  0
 13 48  1  0
 14 49  1  0
 14 50  1  0
 16 51  1  0
 17 52  1  0
 18 53  1  0
 19 54  1  0
 20 55  1  0
 22 56  1  0
 22 57  1  0
 22 58  1  0
 24 59  1  0
 25 60  1  0
 25 61  1  0
 26 62  1  0
 26 63  1  0
 28 64  1  0
 28 65  1  0
 28 66  1  0
 29 67  1  0
 30 68  1  0
 31 69  1  0
 32 70  1  0
 36 71  1  0
 36 72  1  0
 37 73  1  0
 37 74  1  0
 39 75  1  0
M  END
> <Name>
14

> <AbsoluteEnergy>
66.5494

> <Clean Energy>
142.186

> <Column 1>
14

> <ConfNumber>
41

> <Filter_Pass>
Failed

> <IC50_nM>
83.47

> <LogP>
6.17

> <MOL_NUMBER>
10

> <QSAR_Score_pIC50>
7.078

> <RelativeEnergy>
5.11111

> <SMILES>
COc1cc(C)ccc1NC(=O)C1(c2ccccc2C2CC2)CCN(c2ccc(C3(C(=O)O)CC3)cc2)CC1

> <Toxicity_Alerts>
DILI, Basic N (hERG Warning)

> <Type>
Analog

> <POSE_NUMBER>
1

> <LibDockScore>
138.3423

> <HotSpots>
-5.53,-22.92,48.98,A,33,18
4.67,-22.92,49.98,A,40,28
-3.33,-33.72,54.98,P,58,39

$$$$
14
  SciTegic05082609073D

 75 80  0  0  0  0            999 V2000
   -2.8406  -25.8819   49.1218 O   0  0  0  1  0  0
   -2.1468  -25.0714   49.6953 C   0  0  0  1  0  0
   -2.0968  -23.7552   49.2596 N   0  0  0  1  0  0
   -1.3192  -25.5099   50.9120 C   0  0  0  1  0  0
   -2.9292  -23.1715   48.3128 C   0  0  0  1  0  0
    0.1281  -25.0127   50.8002 C   0  0  0  1  0  0
   -1.3289  -27.0717   51.0776 C   0  0  0  1  0  0
   -2.0824  -24.9355   52.1467 C   0  0  0  1  0  0
   -4.3453  -23.2894   48.3507 C   0  0  0  1  0  0
   -2.3219  -22.4216   47.2828 C   0  0  0  1  0  0
    0.8403  -25.0376   49.5625 C   0  0  0  1  0  0
    0.8036  -24.5137   51.9432 C   0  0  0  1  0  0
   -2.3095  -27.6643   52.1165 C   0  0  0  1  0  0
   -3.5331  -25.4473   52.2341 C   0  0  0  1  0  0
   -4.9159  -23.9468   49.3590 O   0  0  0  1  0  0
   -5.1085  -22.6872   47.3218 C   0  0  0  1  0  0
   -3.0954  -21.8218   46.2796 C   0  0  0  1  0  0
    2.1817  -24.6030   49.5146 C   0  0  0  1  0  0
    0.2116  -25.5299   48.2737 C   0  0  0  1  0  0
    2.1320  -24.0714   51.8751 C   0  0  0  1  0  0
   -3.6141  -26.9370   52.2008 N   0  0  0  1  0  0
   -6.3228  -23.9031   49.6139 C   0  0  0  1  0  0
   -4.4927  -21.9573   46.2906 C   0  0  0  1  0  0
    2.8232  -24.1196   50.6609 C   0  0  0  1  0  0
    1.0187  -25.6436   46.9862 C   0  0  0  1  0  0
   -0.0412  -24.5821   47.1123 C   0  0  0  1  0  0
   -4.8456  -27.5976   52.2727 C   0  0  0  1  0  0
   -5.3266  -21.3330   45.2193 C   0  0  0  1  0  0
   -6.0596  -26.8685   52.2631 C   0  0  0  1  0  0
   -4.9226  -29.0090   52.3635 C   0  0  0  1  0  0
   -7.2998  -27.5236   52.3248 C   0  0  0  1  0  0
   -6.1630  -29.6645   52.4216 C   0  0  0  1  0  0
   -7.3568  -28.9246   52.4027 C   0  0  0  1  0  0
   -8.6905  -29.6297   52.4631 C   0  0  0  1  0  0
   -9.0989  -30.2338   51.1301 C   0  0  0  1  0  0
   -9.0820  -30.3697   53.7329 C   0  0  0  1  0  0
   -9.7826  -29.0836   53.3700 C   0  0  0  1  0  0
   -9.8532  -29.6190   50.4117 O   0  0  0  1  0  0
   -8.6149  -31.4264   50.7870 O   0  0  0  1  0  0
   -1.3453  -23.1298   49.6944 H   0  0
   -0.3210  -27.3966   51.3359 H   0  0
   -1.5482  -27.5183   50.1078 H   0  0
   -2.0934  -23.8473   52.0849 H   0  0
   -1.5514  -25.2172   53.0560 H   0  0
   -1.2380  -22.3075   47.2673 H   0  0
    0.2774  -24.4732   52.8969 H   0  0
   -2.5048  -28.7062   51.8627 H   0  0
   -1.8361  -27.6493   53.0982 H   0  0
   -4.1057  -25.0424   51.3996 H   0  0
   -3.9824  -25.0883   53.1600 H   0  0
   -6.1935  -22.7915   47.3294 H   0  0
   -2.6109  -21.2488   45.4890 H   0  0
    2.7263  -24.6443   48.5713 H   0  0
   -0.3966  -26.2128   48.8669 H   0  0
    2.6260  -23.6899   52.7687 H   0  0
   -6.7703  -24.2283   48.6747 H   0  0
   -6.5394  -22.8393   49.7110 H   0  0
   -6.6573  -24.4872   50.4713 H   0  0
    3.8582  -23.7819   50.6070 H   0  0
    0.6804  -26.4808   46.3756 H   0  0
    2.0201  -25.2301   47.1057 H   0  0
    0.3925  -23.5992   47.2964 H   0  0
   -0.9469  -24.8499   46.5681 H   0  0
   -6.0321  -20.6917   45.7476 H   0  0
   -5.8990  -22.1557   44.7908 H   0  0
   -4.7506  -20.7906   44.4696 H   0  0
   -6.0306  -25.7803   52.2069 H   0  0
   -4.0043  -29.5957   52.3887 H   0  0
   -8.2219  -26.9426   52.3122 H   0  0
   -6.1996  -30.7522   52.4816 H   0  0
   -8.3494  -30.2190   54.5258 H   0  0
   -9.6998  -31.2404   53.5134 H   0  0
  -10.7746  -29.2682   52.9577 H   0  0
   -9.4232  -28.2466   53.9687 H   0  0
   -8.8891  -32.0691   51.5708 H   0  0
  1  2  2  0
  2  3  1  0
  2  4  1  0
  3  5  1  0
  4  6  1  0
  4  7  1  0
  4  8  1  0
  5  9  2  0
  5 10  1  0
  6 11  2  0
  6 12  1  0
  7 13  1  0
  8 14  1  0
  9 15  1  0
  9 16  1  0
 10 17  2  0
 11 18  1  0
 11 19  1  0
 12 20  2  0
 13 21  1  0
 14 21  1  0
 15 22  1  0
 16 23  2  0
 17 23  1  0
 18 24  2  0
 19 25  1  0
 19 26  1  0
 20 24  1  0
 21 27  1  0
 23 28  1  0
 25 26  1  0
 27 29  2  0
 27 30  1  0
 29 31  1  0
 30 32  2  0
 31 33  2  0
 32 33  1  0
 33 34  1  0
 34 35  1  0
 34 36  1  0
 34 37  1  0
 35 38  2  0
 35 39  1  0
 36 37  1  0
  3 40  1  0
  7 41  1  0
  7 42  1  0
  8 43  1  0
  8 44  1  0
 10 45  1  0
 12 46  1  0
 13 47  1  0
 13 48  1  0
 14 49  1  0
 14 50  1  0
 16 51  1  0
 17 52  1  0
 18 53  1  0
 19 54  1  0
 20 55  1  0
 22 56  1  0
 22 57  1  0
 22 58  1  0
 24 59  1  0
 25 60  1  0
 25 61  1  0
 26 62  1  0
 26 63  1  0
 28 64  1  0
 28 65  1  0
 28 66  1  0
 29 67  1  0
 30 68  1  0
 31 69  1  0
 32 70  1  0
 36 71  1  0
 36 72  1  0
 37 73  1  0
 37 74  1  0
 39 75  1  0
M  END
> <Name>
14

> <AbsoluteEnergy>
63.1653

> <Clean Energy>
142.186

> <Column 1>
14

> <ConfNumber>
5

> <Filter_Pass>
Failed

> <IC50_nM>
83.47

> <LogP>
6.17

> <MOL_NUMBER>
10

> <QSAR_Score_pIC50>
7.078

> <RelativeEnergy>
1.72703

> <SMILES>
COc1cc(C)ccc1NC(=O)C1(c2ccccc2C2CC2)CCN(c2ccc(C3(C(=O)O)CC3)cc2)CC1

> <Toxicity_Alerts>
DILI, Basic N (hERG Warning)

> <Type>
Analog

> <POSE_NUMBER>
2

> <LibDockScore>
136.1771

> <HotSpots>
-4.93,-23.52,47.59,A,26,16
-5.93,-22.12,45.59,A,14,28
-7.93,-28.32,52.38,A,59,31

$$$$
14
  SciTegic05082609073D

 75 80  0  0  0  0            999 V2000
   -2.0759  -25.5898   47.9025 O   0  0  0  1  0  0
   -1.7766  -24.7914   48.7619 C   0  0  0  1  0  0
   -1.7663  -23.4311   48.4908 N   0  0  0  1  0  0
   -1.3995  -25.2920   50.1598 C   0  0  0  1  0  0
   -2.6217  -22.7613   47.6247 C   0  0  0  1  0  0
    0.0477  -24.9185   50.5125 C   0  0  0  1  0  0
   -2.4602  -24.7057   51.1494 C   0  0  0  1  0  0
   -1.5662  -26.8383   50.2930 C   0  0  0  1  0  0
   -4.0203  -23.0091   47.5782 C   0  0  0  1  0  0
   -2.0596  -21.7888   46.7703 C   0  0  0  1  0  0
    1.1133  -24.9798   49.5573 C   0  0  0  1  0  0
    0.3690  -24.5065   51.8320 C   0  0  0  1  0  0
   -3.9037  -25.1466   50.8462 C   0  0  0  1  0  0
   -2.9999  -27.3629   50.0541 C   0  0  0  1  0  0
   -4.5526  -23.8794   48.4346 O   0  0  0  1  0  0
   -4.8074  -22.3082   46.6332 C   0  0  0  1  0  0
   -2.8574  -21.0944   45.8501 C   0  0  0  1  0  0
    2.4361  -24.7035   49.9668 C   0  0  0  1  0  0
    0.8879  -25.3362   48.0968 C   0  0  0  1  0  0
    1.6847  -24.2099   52.2118 C   0  0  0  1  0  0
   -4.0148  -26.6328   50.8685 N   0  0  0  1  0  0
   -5.9480  -23.9030   48.7487 C   0  0  0  1  0  0
   -4.2343  -21.3572   45.7714 C   0  0  0  1  0  0
    2.7208  -24.3178   51.2810 C   0  0  0  1  0  0
    2.0089  -25.3320   47.0619 C   0  0  0  1  0  0
    0.9617  -24.2511   47.0335 C   0  0  0  1  0  0
   -5.0071  -27.2874   51.5964 C   0  0  0  1  0  0
   -5.0920  -20.6356   44.7834 C   0  0  0  1  0  0
   -6.1563  -26.5872   52.0304 C   0  0  0  1  0  0
   -4.8940  -28.6592   51.9210 C   0  0  0  1  0  0
   -7.1615  -27.2378   52.7653 C   0  0  0  1  0  0
   -5.9023  -29.3113   52.6501 C   0  0  0  1  0  0
   -7.0393  -28.6032   53.0755 C   0  0  0  1  0  0
   -8.1196  -29.3045   53.8641 C   0  0  0  1  0  0
   -7.7877  -29.4184   55.3447 C   0  0  0  1  0  0
   -9.5759  -29.1196   53.4642 C   0  0  0  1  0  0
   -8.8929  -30.4416   53.2143 C   0  0  0  1  0  0
   -8.2058  -28.5775   56.1056 O   0  0  0  1  0  0
   -7.0454  -30.4375   55.7763 O   0  0  0  1  0  0
   -1.0300  -22.8419   48.9964 H   0  0
   -2.4114  -23.6173   51.1158 H   0  0
   -2.2046  -25.0137   52.1632 H   0  0
   -0.8954  -27.3241   49.5844 H   0  0
   -1.2472  -27.1402   51.2906 H   0  0
   -0.9923  -21.5750   46.8265 H   0  0
   -0.4288  -24.4185   52.5695 H   0  0
   -4.5745  -24.7245   51.5945 H   0  0
   -4.1950  -24.7791   49.8622 H   0  0
   -3.0392  -28.4228   50.3056 H   0  0
   -3.2477  -27.2547   48.9982 H   0  0
   -5.8769  -22.5096   46.5728 H   0  0
   -2.4077  -20.3489   45.1943 H   0  0
    3.2494  -24.7923   49.2465 H   0  0
    0.1598  -26.0792   48.4224 H   0  0
    1.8997  -23.8951   53.2330 H   0  0
   -6.4335  -24.0114   47.7788 H   0  0
   -6.1572  -22.8894   49.0907 H   0  0
   -6.2497  -24.6668   49.4654 H   0  0
    3.7473  -24.1023   51.5776 H   0  0
    1.8388  -26.0791   46.2867 H   0  0
    2.9454  -24.9755   47.4908 H   0  0
    1.3381  -23.3141   47.4438 H   0  0
    0.2314  -24.4177   46.2417 H   0  0
   -5.8732  -20.1629   45.3787 H   0  0
   -5.5671  -21.4203   44.1947 H   0  0
   -4.5491  -19.9210   44.1648 H   0  0
   -6.2637  -25.5291   51.7917 H   0  0
   -4.0139  -29.2173   51.6016 H   0  0
   -8.0389  -26.6819   53.0959 H   0  0
   -5.8024  -30.3706   52.8868 H   0  0
   -9.6682  -28.5350   52.5489 H   0  0
  -10.2366  -29.1651   54.3299 H   0  0
   -9.1902  -31.1928   53.9461 H   0  0
   -8.6204  -30.5621   52.1658 H   0  0
   -6.1607  -30.3827   55.2134 H   0  0
  1  2  2  0
  2  3  1  0
  2  4  1  0
  3  5  1  0
  4  6  1  0
  4  7  1  0
  4  8  1  0
  5  9  2  0
  5 10  1  0
  6 11  2  0
  6 12  1  0
  7 13  1  0
  8 14  1  0
  9 15  1  0
  9 16  1  0
 10 17  2  0
 11 18  1  0
 11 19  1  0
 12 20  2  0
 13 21  1  0
 14 21  1  0
 15 22  1  0
 16 23  2  0
 17 23  1  0
 18 24  2  0
 19 25  1  0
 19 26  1  0
 20 24  1  0
 21 27  1  0
 23 28  1  0
 25 26  1  0
 27 29  2  0
 27 30  1  0
 29 31  1  0
 30 32  2  0
 31 33  2  0
 32 33  1  0
 33 34  1  0
 34 35  1  0
 34 36  1  0
 34 37  1  0
 35 38  2  0
 35 39  1  0
 36 37  1  0
  3 40  1  0
  7 41  1  0
  7 42  1  0
  8 43  1  0
  8 44  1  0
 10 45  1  0
 12 46  1  0
 13 47  1  0
 13 48  1  0
 14 49  1  0
 14 50  1  0
 16 51  1  0
 17 52  1  0
 18 53  1  0
 19 54  1  0
 20 55  1  0
 22 56  1  0
 22 57  1  0
 22 58  1  0
 24 59  1  0
 25 60  1  0
 25 61  1  0
 26 62  1  0
 26 63  1  0
 28 64  1  0
 28 65  1  0
 28 66  1  0
 29 67  1  0
 30 68  1  0
 31 69  1  0
 32 70  1  0
 36 71  1  0
 36 72  1  0
 37 73  1  0
 37 74  1  0
 39 75  1  0
M  END
> <Name>
14

> <AbsoluteEnergy>
61.4383

> <Clean Energy>
142.186

> <Column 1>
14

> <ConfNumber>
1

> <Filter_Pass>
Failed

> <IC50_nM>
83.47

> <LogP>
6.17

> <MOL_NUMBER>
10

> <QSAR_Score_pIC50>
7.078

> <RelativeEnergy>
0

> <SMILES>
COc1cc(C)ccc1NC(=O)C1(c2ccccc2C2CC2)CCN(c2ccc(C3(C(=O)O)CC3)cc2)CC1

> <Toxicity_Alerts>
DILI, Basic N (hERG Warning)

> <Type>
Analog

> <POSE_NUMBER>
3

> <LibDockScore>
129.5495

> <HotSpots>
-1.73,-21.72,46.78,A,24,10
0.27,-24.92,46.38,A,19,26
-9.53,-30.12,52.78,A,62,36

$$$$
14
  SciTegic05082609073D

 75 80  0  0  0  0            999 V2000
   -2.5977  -26.0845   46.9511 O   0  0  0  1  0  0
   -2.1235  -25.3083   47.7521 C   0  0  0  1  0  0
   -2.0998  -23.9465   47.4823 N   0  0  0  1  0  0
   -1.5333  -25.8345   49.0787 C   0  0  0  1  0  0
   -3.0476  -23.2312   46.7646 C   0  0  0  1  0  0
   -0.0569  -25.3997   49.1703 C   0  0  0  1  0  0
   -1.6094  -27.3838   49.0755 C   0  0  0  1  0  0
   -2.5403  -25.3250   50.1656 C   0  0  0  1  0  0
   -2.8109  -21.8969   46.3084 C   0  0  0  1  0  0
   -4.3046  -23.8288   46.5060 C   0  0  0  1  0  0
    0.6010  -24.7451   50.2650 C   0  0  0  1  0  0
    0.7266  -25.6854   48.0201 C   0  0  0  1  0  0
   -1.3284  -27.9878   50.4509 C   0  0  0  1  0  0
   -2.7489  -26.1256   51.4780 C   0  0  0  1  0  0
   -1.6647  -21.2209   46.3936 O   0  0  0  1  0  0
   -3.8640  -21.1922   45.6938 C   0  0  0  1  0  0
   -5.3249  -23.1170   45.8602 C   0  0  0  1  0  0
    1.9250  -24.2773   50.0939 C   0  0  0  1  0  0
   -0.0196  -24.5190   51.6308 C   0  0  0  1  0  0
    2.0545  -25.2631   47.8940 C   0  0  0  1  0  0
   -2.3639  -27.5718   51.4402 N   0  0  0  1  0  0
   -0.4081  -21.8146   46.7358 C   0  0  0  1  0  0
   -5.1161  -21.7880   45.4662 C   0  0  0  1  0  0
    2.6482  -24.5364   48.9255 C   0  0  0  1  0  0
    0.3028  -25.5005   52.7559 C   0  0  0  1  0  0
    0.8015  -24.0862   52.8460 C   0  0  0  1  0  0
   -2.9523  -28.4809   52.3208 C   0  0  0  1  0  0
   -6.2202  -21.0229   44.8111 C   0  0  0  1  0  0
   -2.9427  -28.2292   53.7131 C   0  0  0  1  0  0
   -3.5716  -29.6666   51.8598 C   0  0  0  1  0  0
   -3.5172  -29.1397   54.6150 C   0  0  0  1  0  0
   -4.1419  -30.5790   52.7625 C   0  0  0  1  0  0
   -4.1131  -30.3219   54.1435 C   0  0  0  1  0  0
   -4.7202  -31.3069   55.1136 C   0  0  0  1  0  0
   -6.0983  -30.8872   55.5965 C   0  0  0  1  0  0
   -3.8164  -32.0439   56.0900 C   0  0  0  1  0  0
   -4.4401  -32.7916   54.9373 C   0  0  0  1  0  0
   -6.9397  -31.7352   55.7852 O   0  0  0  1  0  0
   -6.3431  -29.5937   55.8002 O   0  0  0  1  0  0
   -1.2679  -23.3937   47.8660 H   0  0
   -0.8844  -27.7751   48.3618 H   0  0
   -2.6034  -27.6905   48.7499 H   0  0
   -2.2495  -24.3108   50.4393 H   0  0
   -3.5144  -25.2097   49.6902 H   0  0
   -4.4819  -24.8592   46.8141 H   0  0
    0.2769  -26.2543   47.2063 H   0  0
   -1.3239  -29.0749   50.3722 H   0  0
   -0.3490  -27.6571   50.7967 H   0  0
   -3.7989  -26.0578   51.7627 H   0  0
   -2.1825  -25.6406   52.2730 H   0  0
   -3.7038  -20.1586   45.3869 H   0  0
   -6.2831  -23.5981   45.6639 H   0  0
    2.3927  -23.7010   50.8921 H   0  0
   -0.9124  -24.1266   51.1439 H   0  0
    2.6219  -25.5009   46.9942 H   0  0
   -0.2983  -22.6141   46.0031 H   0  0
   -0.6093  -22.2995   47.6910 H   0  0
    0.4440  -21.1355   46.7662 H   0  0
    3.6703  -24.1724   48.8216 H   0  0
    1.0952  -26.1911   52.4673 H   0  0
   -0.5616  -25.6664   53.3989 H   0  0
    0.2055  -23.4904   53.5373 H   0  0
    1.8619  -24.0149   52.6041 H   0  0
   -5.7991  -20.6887   43.8629 H   0  0
   -6.3473  -20.1361   45.4321 H   0  0
   -7.1450  -21.5861   44.6864 H   0  0
   -2.4830  -27.3160   54.0910 H   0  0
   -3.6065  -29.8746   50.7904 H   0  0
   -3.5008  -28.9287   55.6843 H   0  0
   -4.6090  -31.4907   52.3900 H   0  0
   -4.3283  -32.2530   57.0293 H   0  0
   -2.7650  -31.8237   55.9052 H   0  0
   -3.7212  -32.9709   54.1379 H   0  0
   -5.2853  -33.3988   55.2615 H   0  0
   -6.1261  -29.1261   54.8855 H   0  0
  1  2  2  0
  2  3  1  0
  2  4  1  0
  3  5  1  0
  4  6  1  0
  4  7  1  0
  4  8  1  0
  5  9  2  0
  5 10  1  0
  6 11  2  0
  6 12  1  0
  7 13  1  0
  8 14  1  0
  9 15  1  0
  9 16  1  0
 10 17  2  0
 11 18  1  0
 11 19  1  0
 12 20  2  0
 13 21  1  0
 14 21  1  0
 15 22  1  0
 16 23  2  0
 17 23  1  0
 18 24  2  0
 19 25  1  0
 19 26  1  0
 20 24  1  0
 21 27  1  0
 23 28  1  0
 25 26  1  0
 27 29  2  0
 27 30  1  0
 29 31  1  0
 30 32  2  0
 31 33  2  0
 32 33  1  0
 33 34  1  0
 34 35  1  0
 34 36  1  0
 34 37  1  0
 35 38  2  0
 35 39  1  0
 36 37  1  0
  3 40  1  0
  7 41  1  0
  7 42  1  0
  8 43  1  0
  8 44  1  0
 10 45  1  0
 12 46  1  0
 13 47  1  0
 13 48  1  0
 14 49  1  0
 14 50  1  0
 16 51  1  0
 17 52  1  0
 18 53  1  0
 19 54  1  0
 20 55  1  0
 22 56  1  0
 22 57  1  0
 22 58  1  0
 24 59  1  0
 25 60  1  0
 25 61  1  0
 26 62  1  0
 26 63  1  0
 28 64  1  0
 28 65  1  0
 28 66  1  0
 29 67  1  0
 30 68  1  0
 31 69  1  0
 32 70  1  0
 36 71  1  0
 36 72  1  0
 37 73  1  0
 37 74  1  0
 39 75  1  0
M  END
> <Name>
14

> <AbsoluteEnergy>
78.2723

> <Clean Energy>
142.186

> <Column 1>
14

> <ConfNumber>
102

> <Filter_Pass>
Failed

> <IC50_nM>
83.47

> <LogP>
6.17

> <MOL_NUMBER>
10

> <QSAR_Score_pIC50>
7.078

> <RelativeEnergy>
16.834

> <SMILES>
COc1cc(C)ccc1NC(=O)C1(c2ccccc2C2CC2)CCN(c2ccc(C3(C(=O)O)CC3)cc2)CC1

> <Toxicity_Alerts>
DILI, Basic N (hERG Warning)

> <Type>
Analog

> <POSE_NUMBER>
4

> <LibDockScore>
129.1635

> <HotSpots>
-3.53,-20.52,45.19,A,12,16
0.87,-24.32,52.78,A,63,26
-4.13,-31.12,56.59,A,79,36

$$$$
14
  SciTegic05082609073D

 75 80  0  0  0  0            999 V2000
   -2.7068  -26.0343   48.2158 O   0  0  0  1  0  0
   -2.3840  -25.1911   49.0239 C   0  0  0  1  0  0
   -2.2604  -23.8623   48.6476 N   0  0  0  1  0  0
   -2.1145  -25.5997   50.4796 C   0  0  0  1  0  0
   -3.0366  -23.1939   47.7065 C   0  0  0  1  0  0
   -0.7703  -25.0430   50.9717 C   0  0  0  1  0  0
   -3.3737  -25.0460   51.2597 C   0  0  0  1  0  0
   -2.1027  -27.1701   50.5987 C   0  0  0  1  0  0
   -2.4167  -22.2835   46.8117 C   0  0  0  1  0  0
   -4.4334  -23.3960   47.6339 C   0  0  0  1  0  0
    0.4090  -25.0548   50.1577 C   0  0  0  1  0  0
   -0.6632  -24.4951   52.2753 C   0  0  0  1  0  0
   -3.7070  -25.7253   52.6050 C   0  0  0  1  0  0
   -2.4397  -27.7361   51.9902 C   0  0  0  1  0  0
   -1.0997  -22.1018   46.8964 O   0  0  0  1  0  0
   -3.2152  -21.6048   45.8598 C   0  0  0  1  0  0
   -5.2070  -22.7206   46.6811 C   0  0  0  1  0  0
    1.6389  -24.6232   50.7024 C   0  0  0  1  0  0
    0.3997  -25.5120   48.7074 C   0  0  0  1  0  0
    0.5603  -24.0439   52.7874 C   0  0  0  1  0  0
   -3.7515  -27.1864   52.3947 N   0  0  0  1  0  0
   -0.3147  -21.6196   45.8014 C   0  0  0  1  0  0
   -4.6027  -21.8206   45.7903 C   0  0  0  1  0  0
    1.7150  -24.1195   52.0054 C   0  0  0  1  0  0
    1.6724  -25.6872   47.8842 C   0  0  0  1  0  0
    0.7605  -24.5202   47.6108 C   0  0  0  1  0  0
   -4.9205  -27.9381   52.4630 C   0  0  0  1  0  0
   -5.4391  -21.1022   44.7830 C   0  0  0  1  0  0
   -6.1721  -27.2844   52.5199 C   0  0  0  1  0  0
   -4.8957  -29.3520   52.4556 C   0  0  0  1  0  0
   -7.3653  -28.0192   52.5281 C   0  0  0  1  0  0
   -6.0933  -30.0878   52.4600 C   0  0  0  1  0  0
   -7.3313  -29.4221   52.4791 C   0  0  0  1  0  0
   -8.6268  -30.1971   52.4314 C   0  0  0  1  0  0
   -8.7907  -30.9704   51.1292 C   0  0  0  1  0  0
   -9.8722  -29.5850   53.0540 C   0  0  0  1  0  0
   -9.2076  -30.7678   53.7162 C   0  0  0  1  0  0
   -9.5537  -30.5478   50.2883 O   0  0  0  1  0  0
   -8.0905  -32.0882   50.9424 O   0  0  0  1  0  0
   -1.4916  -23.2947   49.1289 H   0  0
   -3.2266  -23.9812   51.4407 H   0  0
   -4.2456  -25.1260   50.6105 H   0  0
   -1.1176  -27.5344   50.3071 H   0  0
   -2.8117  -27.5786   49.8786 H   0  0
   -4.9145  -24.0856   48.3275 H   0  0
   -1.5567  -24.4231   52.8955 H   0  0
   -4.6770  -25.3779   52.9606 H   0  0
   -2.9358  -25.4849   53.3369 H   0  0
   -2.4966  -28.8235   51.9405 H   0  0
   -1.6770  -27.4307   52.7066 H   0  0
   -2.7465  -20.9034   45.1695 H   0  0
   -6.2818  -22.8948   46.6316 H   0  0
    2.5436  -24.6836   50.0975 H   0  0
   -0.4400  -26.1647   48.9461 H   0  0
    0.6110  -23.6339   53.7961 H   0  0
   -0.7904  -20.6769   45.5311 H   0  0
   -0.5291  -22.3205   44.9946 H   0  0
    0.7511  -21.5168   46.0055 H   0  0
    2.6717  -23.7874   52.4087 H   0  0
    1.5588  -26.4718   47.1362 H   0  0
    2.5556  -25.3859   48.4474 H   0  0
    1.1570  -23.5931   48.0249 H   0  0
    0.1595  -24.6791   46.7154 H   0  0
   -4.9848  -21.3466   43.8228 H   0  0
   -5.2444  -20.0455   44.9664 H   0  0
   -6.5003  -21.3482   44.8219 H   0  0
   -6.2098  -26.1957   52.5579 H   0  0
   -3.9398  -29.8757   52.4464 H   0  0
   -8.3227  -27.5001   52.5727 H   0  0
   -6.0620  -31.1773   52.4486 H   0  0
  -10.7739  -29.8790   52.5169 H   0  0
   -9.6435  -28.6533   53.5714 H   0  0
   -8.6253  -30.4665   54.5870 H   0  0
   -9.7546  -31.6923   53.5312 H   0  0
   -8.3373  -32.7021   51.7577 H   0  0
  1  2  2  0
  2  3  1  0
  2  4  1  0
  3  5  1  0
  4  6  1  0
  4  7  1  0
  4  8  1  0
  5  9  2  0
  5 10  1  0
  6 11  2  0
  6 12  1  0
  7 13  1  0
  8 14  1  0
  9 15  1  0
  9 16  1  0
 10 17  2  0
 11 18  1  0
 11 19  1  0
 12 20  2  0
 13 21  1  0
 14 21  1  0
 15 22  1  0
 16 23  2  0
 17 23  1  0
 18 24  2  0
 19 25  1  0
 19 26  1  0
 20 24  1  0
 21 27  1  0
 23 28  1  0
 25 26  1  0
 27 29  2  0
 27 30  1  0
 29 31  1  0
 30 32  2  0
 31 33  2  0
 32 33  1  0
 33 34  1  0
 34 35  1  0
 34 36  1  0
 34 37  1  0
 35 38  2  0
 35 39  1  0
 36 37  1  0
  3 40  1  0
  7 41  1  0
  7 42  1  0
  8 43  1  0
  8 44  1  0
 10 45  1  0
 12 46  1  0
 13 47  1  0
 13 48  1  0
 14 49  1  0
 14 50  1  0
 16 51  1  0
 17 52  1  0
 18 53  1  0
 19 54  1  0
 20 55  1  0
 22 56  1  0
 22 57  1  0
 22 58  1  0
 24 59  1  0
 25 60  1  0
 25 61  1  0
 26 62  1  0
 26 63  1  0
 28 64  1  0
 28 65  1  0
 28 66  1  0
 29 67  1  0
 30 68  1  0
 31 69  1  0
 32 70  1  0
 36 71  1  0
 36 72  1  0
 37 73  1  0
 37 74  1  0
 39 75  1  0
M  END
> <Name>
14

> <AbsoluteEnergy>
66.2954

> <Clean Energy>
142.186

> <Column 1>
14

> <ConfNumber>
38

> <Filter_Pass>
Failed

> <IC50_nM>
83.47

> <LogP>
6.17

> <MOL_NUMBER>
10

> <QSAR_Score_pIC50>
7.078

> <RelativeEnergy>
4.85716

> <SMILES>
COc1cc(C)ccc1NC(=O)C1(c2ccccc2C2CC2)CCN(c2ccc(C3(C(=O)O)CC3)cc2)CC1

> <Toxicity_Alerts>
DILI, Basic N (hERG Warning)

> <Type>
Analog

> <POSE_NUMBER>
5

> <LibDockScore>
128.5975

> <HotSpots>
3.07,-24.52,50.38,A,43,24
0.27,-24.92,46.38,A,19,26
-8.73,-28.12,54.38,A,70,36

$$$$
14
  SciTegic05082609073D

 75 80  0  0  0  0            999 V2000
   -3.4161  -26.4804   49.2702 O   0  0  0  1  0  0
   -2.5230  -25.7192   49.5710 C   0  0  0  1  0  0
   -2.8033  -24.4075   49.9215 N   0  0  0  1  0  0
   -1.0656  -26.2125   49.5617 C   0  0  0  1  0  0
   -4.0675  -23.8882   50.1629 C   0  0  0  1  0  0
   -0.2395  -25.4422   48.5199 C   0  0  0  1  0  0
   -0.5629  -26.1402   51.0258 C   0  0  0  1  0  0
   -1.0013  -27.7223   49.2371 C   0  0  0  1  0  0
   -5.0302  -24.5669   50.9582 C   0  0  0  1  0  0
   -4.3858  -22.6327   49.6036 C   0  0  0  1  0  0
    0.8624  -24.5742   48.8047 C   0  0  0  1  0  0
   -0.5999  -25.6139   47.1574 C   0  0  0  1  0  0
   -1.5086  -26.8213   52.0279 C   0  0  0  1  0  0
   -1.8129  -28.6409   50.1819 C   0  0  0  1  0  0
   -4.6968  -25.7236   51.5301 O   0  0  0  1  0  0
   -6.3075  -23.9823   51.1314 C   0  0  0  1  0  0
   -5.6529  -22.0638   49.7958 C   0  0  0  1  0  0
    1.4701  -23.8476   47.7582 C   0  0  0  1  0  0
    1.4470  -24.3762   50.1865 C   0  0  0  1  0  0
    0.0335  -24.9069   46.1275 C   0  0  0  1  0  0
   -2.0391  -28.1575   51.5919 N   0  0  0  1  0  0
   -5.6221  -26.5094   52.2866 C   0  0  0  1  0  0
   -6.6223  -22.7392   50.5553 C   0  0  0  1  0  0
    1.0611  -24.0105   46.4297 C   0  0  0  1  0  0
    2.7116  -23.5519   50.3980 C   0  0  0  1  0  0
    2.7616  -25.0483   50.5567 C   0  0  0  1  0  0
   -2.7780  -28.9419   52.4908 C   0  0  0  1  0  0
   -7.9802  -22.1488   50.7568 C   0  0  0  1  0  0
   -3.7511  -29.8653   52.0330 C   0  0  0  1  0  0
   -2.5820  -28.8332   53.8906 C   0  0  0  1  0  0
   -4.4942  -30.6444   52.9342 C   0  0  0  1  0  0
   -3.3256  -29.6116   54.7918 C   0  0  0  1  0  0
   -4.2855  -30.5202   54.3176 C   0  0  0  1  0  0
   -5.0930  -31.3551   55.2889 C   0  0  0  1  0  0
   -6.4684  -30.7620   55.6255 C   0  0  0  1  0  0
   -4.9542  -32.8691   55.2114 C   0  0  0  1  0  0
   -4.3411  -32.1193   56.3709 C   0  0  0  1  0  0
   -6.5913  -29.5654   55.7626 O   0  0  0  1  0  0
   -7.5285  -31.5597   55.7663 O   0  0  0  1  0  0
   -1.9738  -23.7380   50.0138 H   0  0
   -0.4437  -25.0943   51.3086 H   0  0
    0.4167  -26.6142   51.0872 H   0  0
   -1.3555  -27.8738   48.2175 H   0  0
    0.0415  -28.0389   49.2574 H   0  0
   -3.6388  -22.0993   49.0158 H   0  0
   -1.3935  -26.3172   46.9052 H   0  0
   -0.9823  -26.9484   52.9739 H   0  0
   -2.3525  -26.1584   52.2193 H   0  0
   -1.3151  -29.6094   50.2306 H   0  0
   -2.7854  -28.8273   49.7264 H   0  0
   -7.0601  -24.5050   51.7217 H   0  0
   -5.8862  -21.0948   49.3546 H   0  0
    2.2725  -23.1469   47.9889 H   0  0
    0.4374  -24.3518   50.5967 H   0  0
   -0.2748  -25.0559   45.0927 H   0  0
   -6.4501  -26.6754   51.5974 H   0  0
   -5.9856  -25.8228   53.0511 H   0  0
   -5.2176  -27.4336   52.6994 H   0  0
    1.5421  -23.4406   45.6348 H   0  0
    2.7005  -23.0442   51.3625 H   0  0
    3.1422  -23.2322   49.4491 H   0  0
    3.2210  -25.5302   49.6937 H   0  0
    2.7778  -25.3423   51.6062 H   0  0
   -8.1065  -22.0911   51.8379 H   0  0
   -8.6750  -22.9052   50.3919 H   0  0
   -8.1199  -21.1843   50.2687 H   0  0
   -3.9256  -29.9724   50.9624 H   0  0
   -1.8404  -28.1325   54.2742 H   0  0
   -5.2364  -31.3488   52.5586 H   0  0
   -3.1571  -29.5102   55.8639 H   0  0
   -4.2014  -33.1649   54.4807 H   0  0
   -5.8782  -33.3701   55.4998 H   0  0
   -4.9386  -32.2214   57.2768 H   0  0
   -3.2621  -32.0147   56.2569 H   0  0
   -7.2428  -32.2481   56.5059 H   0  0
  1  2  2  0
  2  3  1  0
  2  4  1  0
  3  5  1  0
  4  6  1  0
  4  7  1  0
  4  8  1  0
  5  9  2  0
  5 10  1  0
  6 11  2  0
  6 12  1  0
  7 13  1  0
  8 14  1  0
  9 15  1  0
  9 16  1  0
 10 17  2  0
 11 18  1  0
 11 19  1  0
 12 20  2  0
 13 21  1  0
 14 21  1  0
 15 22  1  0
 16 23  2  0
 17 23  1  0
 18 24  2  0
 19 25  1  0
 19 26  1  0
 20 24  1  0
 21 27  1  0
 23 28  1  0
 25 26  1  0
 27 29  2  0
 27 30  1  0
 29 31  1  0
 30 32  2  0
 31 33  2  0
 32 33  1  0
 33 34  1  0
 34 35  1  0
 34 36  1  0
 34 37  1  0
 35 38  2  0
 35 39  1  0
 36 37  1  0
  3 40  1  0
  7 41  1  0
  7 42  1  0
  8 43  1  0
  8 44  1  0
 10 45  1  0
 12 46  1  0
 13 47  1  0
 13 48  1  0
 14 49  1  0
 14 50  1  0
 16 51  1  0
 17 52  1  0
 18 53  1  0
 19 54  1  0
 20 55  1  0
 22 56  1  0
 22 57  1  0
 22 58  1  0
 24 59  1  0
 25 60  1  0
 25 61  1  0
 26 62  1  0
 26 63  1  0
 28 64  1  0
 28 65  1  0
 28 66  1  0
 29 67  1  0
 30 68  1  0
 31 69  1  0
 32 70  1  0
 36 71  1  0
 36 72  1  0
 37 73  1  0
 37 74  1  0
 39 75  1  0
M  END
> <Name>
14

> <AbsoluteEnergy>
67.2623

> <Clean Energy>
142.186

> <Column 1>
14

> <ConfNumber>
51

> <Filter_Pass>
Failed

> <IC50_nM>
83.47

> <LogP>
6.17

> <MOL_NUMBER>
10

> <QSAR_Score_pIC50>
7.078

> <RelativeEnergy>
5.82406

> <SMILES>
COc1cc(C)ccc1NC(=O)C1(c2ccccc2C2CC2)CCN(c2ccc(C3(C(=O)O)CC3)cc2)CC1

> <Toxicity_Alerts>
DILI, Basic N (hERG Warning)

> <Type>
Analog

> <POSE_NUMBER>
6

> <LibDockScore>
119.6508

> <HotSpots>
-6.33,-26.32,51.98,A,57,22
0.27,-22.52,46.78,A,23,24
-4.13,-31.12,56.59,A,79,37

$$$$
14
  SciTegic05082609073D

 75 80  0  0  0  0            999 V2000
   -1.6303  -25.4909   48.2384 O   0  0  0  1  0  0
   -1.5626  -24.6929   49.1472 C   0  0  0  1  0  0
   -1.2595  -23.3610   48.9018 N   0  0  0  1  0  0
   -1.8099  -25.1692   50.5827 C   0  0  0  1  0  0
   -1.7137  -22.5932   47.8349 C   0  0  0  1  0  0
   -0.6376  -24.7721   51.4936 C   0  0  0  1  0  0
   -2.0083  -26.7197   50.5963 C   0  0  0  1  0  0
   -3.2064  -24.5664   50.9865 C   0  0  0  1  0  0
   -3.0872  -22.4869   47.4833 C   0  0  0  1  0  0
   -0.7500  -21.8860   47.0840 C   0  0  0  1  0  0
    0.7252  -24.7884   51.0495 C   0  0  0  1  0  0
   -0.8832  -24.3691   52.8303 C   0  0  0  1  0  0
   -2.6011  -27.2840   51.8967 C   0  0  0  1  0  0
   -3.9094  -25.1867   52.2193 C   0  0  0  1  0  0
   -3.9988  -23.0976   48.2380 O   0  0  0  1  0  0
   -3.4463  -21.7187   46.3499 C   0  0  0  1  0  0
   -1.1260  -21.1169   45.9739 C   0  0  0  1  0  0
    1.7648  -24.5405   51.9714 C   0  0  0  1  0  0
    1.1315  -25.0550   49.6089 C   0  0  0  1  0  0
    0.1613  -24.0977   53.7242 C   0  0  0  1  0  0
   -3.9304  -26.6707   52.1518 N   0  0  0  1  0  0
   -5.4043  -23.0015   47.9884 C   0  0  0  1  0  0
   -2.4749  -21.0370   45.5953 C   0  0  0  1  0  0
    1.4880  -24.1984   53.2988 C   0  0  0  1  0  0
    1.7384  -23.9385   48.7712 C   0  0  0  1  0  0
    2.5964  -25.1023   49.1843 C   0  0  0  1  0  0
   -5.0924  -27.4245   52.3056 C   0  0  0  1  0  0
   -2.8646  -20.2300   44.3993 C   0  0  0  1  0  0
   -6.3675  -26.8139   52.2641 C   0  0  0  1  0  0
   -5.0241  -28.8229   52.5039 C   0  0  0  1  0  0
   -7.5362  -27.5783   52.4142 C   0  0  0  1  0  0
   -6.1931  -29.5880   52.6451 C   0  0  0  1  0  0
   -7.4539  -28.9686   52.6015 C   0  0  0  1  0  0
   -8.7117  -29.7904   52.7500 C   0  0  0  1  0  0
   -9.1566  -30.4254   51.4431 C   0  0  0  1  0  0
   -9.7802  -29.3413   53.7355 C   0  0  0  1  0  0
   -8.9500  -30.5647   54.0376 C   0  0  0  1  0  0
   -9.8257  -29.7774   50.6714 O   0  0  0  1  0  0
   -8.7972  -31.6811   51.1813 O   0  0  0  1  0  0
   -0.6122  -22.8769   49.6029 H   0  0
   -1.0454  -27.1979   50.4168 H   0  0
   -2.6606  -26.9960   49.7679 H   0  0
   -3.0808  -23.4987   51.1661 H   0  0
   -3.8781  -24.6505   50.1322 H   0  0
    0.3002  -21.9386   47.3711 H   0  0
   -1.9132  -24.2675   53.1723 H   0  0
   -2.7125  -28.3645   51.8056 H   0  0
   -1.9334  -27.0591   52.7284 H   0  0
   -4.9338  -24.8179   52.2719 H   0  0
   -3.3847  -24.8783   53.1236 H   0  0
   -4.4942  -21.6544   46.0568 H   0  0
   -0.3686  -20.5795   45.4033 H   0  0
    2.8013  -24.6170   51.6430 H   0  0
    0.2852  -25.7357   49.5167 H   0  0
   -0.0614  -23.8081   54.7511 H   0  0
   -5.5106  -23.3360   46.9565 H   0  0
   -5.5978  -21.9288   47.9898 H   0  0
   -6.0384  -23.5514   48.6838 H   0  0
    2.3032  -24.0113   53.9978 H   0  0
    1.9423  -23.0530   49.3732 H   0  0
    1.4335  -24.0121   47.7273 H   0  0
    2.7510  -25.8018   48.3628 H   0  0
    3.2588  -24.8429   50.0102 H   0  0
   -3.5994  -19.5176   44.7743 H   0  0
   -3.3993  -20.9293   43.7565 H   0  0
   -2.0296  -19.7463   43.8925 H   0  0
   -6.4441  -25.7370   52.1138 H   0  0
   -4.0516  -29.3132   52.5477 H   0  0
   -8.5109  -27.0912   52.3853 H   0  0
   -6.1224  -30.6661   52.7890 H   0  0
  -10.7794  -29.6080   53.3912 H   0  0
   -9.4516  -28.4787   54.3152 H   0  0
   -8.1792  -30.3548   54.7791 H   0  0
   -9.5061  -31.4840   53.8538 H   0  0
   -9.1546  -32.2434   51.9929 H   0  0
  1  2  2  0
  2  3  1  0
  2  4  1  0
  3  5  1  0
  4  6  1  0
  4  7  1  0
  4  8  1  0
  5  9  2  0
  5 10  1  0
  6 11  2  0
  6 12  1  0
  7 13  1  0
  8 14  1  0
  9 15  1  0
  9 16  1  0
 10 17  2  0
 11 18  1  0
 11 19  1  0
 12 20  2  0
 13 21  1  0
 14 21  1  0
 15 22  1  0
 16 23  2  0
 17 23  1  0
 18 24  2  0
 19 25  1  0
 19 26  1  0
 20 24  1  0
 21 27  1  0
 23 28  1  0
 25 26  1  0
 27 29  2  0
 27 30  1  0
 29 31  1  0
 30 32  2  0
 31 33  2  0
 32 33  1  0
 33 34  1  0
 34 35  1  0
 34 36  1  0
 34 37  1  0
 35 38  2  0
 35 39  1  0
 36 37  1  0
  3 40  1  0
  7 41  1  0
  7 42  1  0
  8 43  1  0
  8 44  1  0
 10 45  1  0
 12 46  1  0
 13 47  1  0
 13 48  1  0
 14 49  1  0
 14 50  1  0
 16 51  1  0
 17 52  1  0
 18 53  1  0
 19 54  1  0
 20 55  1  0
 22 56  1  0
 22 57  1  0
 22 58  1  0
 24 59  1  0
 25 60  1  0
 25 61  1  0
 26 62  1  0
 26 63  1  0
 28 64  1  0
 28 65  1  0
 28 66  1  0
 29 67  1  0
 30 68  1  0
 31 69  1  0
 32 70  1  0
 36 71  1  0
 36 72  1  0
 37 73  1  0
 37 74  1  0
 39 75  1  0
M  END
> <Name>
14

> <AbsoluteEnergy>
64.4448

> <Clean Energy>
142.186

> <Column 1>
14

> <ConfNumber>
15

> <Filter_Pass>
Failed

> <IC50_nM>
83.47

> <LogP>
6.17

> <MOL_NUMBER>
10

> <QSAR_Score_pIC50>
7.078

> <RelativeEnergy>
3.00657

> <SMILES>
COc1cc(C)ccc1NC(=O)C1(c2ccccc2C2CC2)CCN(c2ccc(C3(C(=O)O)CC3)cc2)CC1

> <Toxicity_Alerts>
DILI, Basic N (hERG Warning)

> <Type>
Analog

> <POSE_NUMBER>
7

> <LibDockScore>
112.3499

> <HotSpots>
-3.53,-20.52,45.19,A,12,16
1.67,-24.32,50.98,A,50,24
-6.33,-26.32,51.98,A,57,29

$$$$
14
  SciTegic05082609073D

 75 80  0  0  0  0            999 V2000
   -1.8450  -28.2745   51.1139 O   0  0  0  1  0  0
   -2.1441  -27.2312   51.6531 C   0  0  0  1  0  0
   -1.4355  -26.0729   51.3612 N   0  0  0  1  0  0
   -3.3289  -27.2388   52.6489 C   0  0  0  1  0  0
   -0.5981  -25.8588   50.2719 C   0  0  0  1  0  0
   -3.0222  -28.1959   53.8099 C   0  0  0  1  0  0
   -4.5496  -27.6275   51.7474 C   0  0  0  1  0  0
   -3.7033  -25.8307   53.2271 C   0  0  0  1  0  0
   -0.8582  -26.3926   48.9797 C   0  0  0  1  0  0
    0.5419  -25.0501   50.4707 C   0  0  0  1  0  0
   -3.7827  -29.3613   54.1457 C   0  0  0  1  0  0
   -1.8982  -27.8954   54.6224 C   0  0  0  1  0  0
   -4.7162  -26.7012   50.5148 C   0  0  0  1  0  0
   -4.4691  -24.8971   52.2517 C   0  0  0  1  0  0
   -1.9582  -27.1171   48.7848 O   0  0  0  1  0  0
    0.0506  -26.1174   47.9302 C   0  0  0  1  0  0
    1.4251  -24.7804   49.4162 C   0  0  0  1  0  0
   -3.3407  -30.2140   55.1799 C   0  0  0  1  0  0
   -5.0699  -29.7574   53.4566 C   0  0  0  1  0  0
   -1.4888  -28.7379   55.6641 C   0  0  0  1  0  0
   -4.2909  -25.3025   50.8272 N   0  0  0  1  0  0
   -2.3256  -27.6389   47.5037 C   0  0  0  1  0  0
    1.1840  -25.3141   48.1404 C   0  0  0  1  0  0
   -2.2032  -29.9076   55.9344 C   0  0  0  1  0  0
   -6.3924  -29.1494   53.9031 C   0  0  0  1  0  0
   -6.1175  -30.6062   54.1670 C   0  0  0  1  0  0
   -3.7083  -24.4852   49.8621 C   0  0  0  1  0  0
    2.1171  -25.0347   47.0074 C   0  0  0  1  0  0
   -3.8209  -24.8065   48.4904 C   0  0  0  1  0  0
   -2.9713  -23.3347   50.2265 C   0  0  0  1  0  0
   -3.1661  -24.0359   47.5167 C   0  0  0  1  0  0
   -2.3173  -22.5642   49.2527 C   0  0  0  1  0  0
   -2.3928  -22.9262   47.8974 C   0  0  0  1  0  0
   -1.6361  -22.1361   46.8592 C   0  0  0  1  0  0
   -0.2932  -22.7688   46.5217 C   0  0  0  1  0  0
   -2.4017  -21.4217   45.7556 C   0  0  0  1  0  0
   -1.7391  -20.6189   46.8483 C   0  0  0  1  0  0
   -0.2611  -23.9237   46.1629 O   0  0  0  1  0  0
    0.8216  -22.0472   46.6297 O   0  0  0  1  0  0
   -1.5456  -25.2591   52.0471 H   0  0
   -4.4232  -28.6540   51.4033 H   0  0
   -5.4600  -27.5866   52.3453 H   0  0
   -4.3103  -25.9714   54.1215 H   0  0
   -2.7890  -25.3281   53.5425 H   0  0
    0.7378  -24.6299   51.4572 H   0  0
   -1.3364  -26.9814   54.4301 H   0  0
   -4.1112  -27.0843   49.6931 H   0  0
   -5.7616  -26.6968   50.2061 H   0  0
   -4.1100  -23.8757   52.3777 H   0  0
   -5.5309  -24.9183   52.4969 H   0  0
   -0.1321  -26.5364   46.9407 H   0  0
    2.3012  -24.1548   49.5872 H   0  0
   -3.8954  -31.1274   55.3945 H   0  0
   -4.5242  -29.8380   52.5165 H   0  0
   -0.6146  -28.4813   56.2625 H   0  0
   -1.4551  -28.2187   47.1968 H   0  0
   -2.3570  -26.7592   46.8609 H   0  0
   -3.2508  -28.2148   47.4853 H   0  0
   -1.8760  -30.5781   56.7291 H   0  0
   -7.0735  -29.0133   53.0630 H   0  0
   -6.2707  -28.5465   54.8030 H   0  0
   -5.8484  -30.7837   55.2083 H   0  0
   -6.6499  -31.2504   53.4673 H   0  0
    1.4949  -24.5898   46.2308 H   0  0
    2.4281  -26.0155   46.6478 H   0  0
    2.9629  -24.4022   47.2771 H   0  0
   -4.4230  -25.6623   48.1851 H   0  0
   -2.9105  -23.0431   51.2750 H   0  0
   -3.2578  -24.2990   46.4629 H   0  0
   -1.7491  -21.6824   49.5488 H   0  0
   -3.4790  -21.4929   45.9054 H   0  0
   -1.8291  -21.3894   44.8287 H   0  0
   -0.8137  -20.1574   46.5037 H   0  0
   -2.4629  -20.2623   47.5811 H   0  0
    0.8250  -21.7063   47.6228 H   0  0
  1  2  2  0
  2  3  1  0
  2  4  1  0
  3  5  1  0
  4  6  1  0
  4  7  1  0
  4  8  1  0
  5  9  2  0
  5 10  1  0
  6 11  2  0
  6 12  1  0
  7 13  1  0
  8 14  1  0
  9 15  1  0
  9 16  1  0
 10 17  2  0
 11 18  1  0
 11 19  1  0
 12 20  2  0
 13 21  1  0
 14 21  1  0
 15 22  1  0
 16 23  2  0
 17 23  1  0
 18 24  2  0
 19 25  1  0
 19 26  1  0
 20 24  1  0
 21 27  1  0
 23 28  1  0
 25 26  1  0
 27 29  2  0
 27 30  1  0
 29 31  1  0
 30 32  2  0
 31 33  2  0
 32 33  1  0
 33 34  1  0
 34 35  1  0
 34 36  1  0
 34 37  1  0
 35 38  2  0
 35 39  1  0
 36 37  1  0
  3 40  1  0
  7 41  1  0
  7 42  1  0
  8 43  1  0
  8 44  1  0
 10 45  1  0
 12 46  1  0
 13 47  1  0
 13 48  1  0
 14 49  1  0
 14 50  1  0
 16 51  1  0
 17 52  1  0
 18 53  1  0
 19 54  1  0
 20 55  1  0
 22 56  1  0
 22 57  1  0
 22 58  1  0
 24 59  1  0
 25 60  1  0
 25 61  1  0
 26 62  1  0
 26 63  1  0
 28 64  1  0
 28 65  1  0
 28 66  1  0
 29 67  1  0
 30 68  1  0
 31 69  1  0
 32 70  1  0
 36 71  1  0
 36 72  1  0
 37 73  1  0
 37 74  1  0
 39 75  1  0
M  END
> <Name>
14

> <AbsoluteEnergy>
67.7614

> <Clean Energy>
142.186

> <Column 1>
14

> <ConfNumber>
56

> <Filter_Pass>
Failed

> <IC50_nM>
83.47

> <LogP>
6.17

> <MOL_NUMBER>
10

> <QSAR_Score_pIC50>
7.078

> <RelativeEnergy>
6.3231

> <SMILES>
COc1cc(C)ccc1NC(=O)C1(c2ccccc2C2CC2)CCN(c2ccc(C3(C(=O)O)CC3)cc2)CC1

> <Toxicity_Alerts>
DILI, Basic N (hERG Warning)

> <Type>
Analog

> <POSE_NUMBER>
8

> <LibDockScore>
103.3447

> <HotSpots>
-5.93,-24.72,51.19,A,53,14
-7.93,-28.32,52.38,A,59,25
-3.53,-20.52,45.19,A,12,36

$$$$
