Molecule
  SciTegic05072616053D

 70 74  0  0  0  0            999 V2000
    1.5471  -26.0124   47.4483 C   0  0  0  1  0  0
    0.7264  -24.7826   47.8845 C   0  0  0  1  0  0
    1.2467  -23.4809   47.2395 C   0  0  0  1  0  0
    0.6523  -24.6650   49.3961 C   0  0  0  1  0  0
    1.8859  -24.6819   50.1031 C   0  0  0  1  0  0
    1.9359  -24.5229   51.4942 C   0  0  0  1  0  0
    0.7543  -24.2891   52.1971 C   0  0  0  1  0  0
   -0.4758  -24.2619   51.5170 C   0  0  0  1  0  0
   -0.5746  -24.5334   50.1268 C   0  0  0  1  0  0
   -1.9635  -24.6875   49.4729 C   0  0  0  1  0  0
   -2.1766  -23.6343   48.3635 C   0  0  0  1  0  0
   -1.3931  -22.7208   48.2302 O   0  0  0  1  0  0
   -3.2822  -23.7410   47.5222 N   0  0  0  1  0  0
   -3.7717  -22.7934   46.6186 C   0  0  0  1  0  0
   -3.0729  -21.6072   46.2841 C   0  0  0  1  0  0
   -3.6235  -20.6985   45.3533 C   0  0  0  1  0  0
   -4.8247  -20.9284   44.7627 N   0  0  0  1  0  0
   -5.5111  -22.0688   45.0653 C   0  0  0  1  0  0
   -5.0213  -23.0202   45.9911 C   0  0  0  1  0  0
   -5.7175  -24.1063   46.2794 O   0  0  0  1  0  0
   -3.1548  -24.5285   50.4764 C   0  0  0  1  0  0
   -3.2903  -25.5868   51.6016 C   0  0  0  1  0  0
   -2.8817  -26.9817   51.2357 N   0  0  0  1  0  0
   -3.2880  -28.0460   52.0301 C   0  0  0  1  0  0
   -2.6462  -29.2960   51.9317 C   0  0  0  1  0  0
   -3.0121  -30.3492   52.7854 C   0  0  0  1  0  0
   -4.0189  -30.1684   53.7532 C   0  0  0  1  0  0
   -4.3402  -31.2851   54.7236 C   0  0  0  1  0  0
   -3.7917  -31.0425   56.1388 C   0  0  0  1  0  0
   -2.8912  -30.2457   56.3113 O   0  0  0  1  0  0
   -4.3256  -31.7287   57.1494 O   0  0  0  1  0  0
   -4.3270  -32.7107   54.1711 C   0  0  0  1  0  0
   -4.6996  -28.9455   53.8173 C   0  0  0  1  0  0
   -4.3386  -27.8945   52.9624 C   0  0  0  1  0  0
   -1.9793  -27.2128   50.0641 C   0  0  0  1  0  0
   -2.1499  -26.1527   48.9556 C   0  0  0  1  0  0
   -5.6427  -32.0688   54.5595 C   0  0  0  1  0  0
    2.5860  -25.8519   47.7364 H   0  0
    1.4916  -26.0950   46.3629 H   0  0
    1.1610  -26.9180   47.9162 H   0  0
   -0.2893  -24.9351   47.5196 H   0  0
    1.1943  -23.5895   46.1562 H   0  0
    2.2887  -23.3463   47.5297 H   0  0
    0.6513  -22.6270   47.5627 H   0  0
    2.8145  -24.8219   49.5498 H   0  0
    2.8881  -24.5813   52.0214 H   0  0
    0.7845  -24.1273   53.2746 H   0  0
   -1.3821  -24.0250   52.0743 H   0  0
   -3.8236  -24.6625   47.5743 H   0  0
   -2.1085  -21.3954   46.7459 H   0  0
   -3.0718  -19.7922   45.1034 H   0  0
   -6.4684  -22.2527   44.5775 H   0  0
   -5.8448  -24.0756   47.3212 H   0  0
   -3.0811  -23.5453   50.9412 H   0  0
   -4.0838  -24.5175   49.9064 H   0  0
   -2.6931  -25.2653   52.4548 H   0  0
   -4.3273  -25.6083   51.9367 H   0  0
   -1.8621  -29.4464   51.1896 H   0  0
   -2.5129  -31.3142   52.6982 H   0  0
   -4.2139  -32.7400   56.8899 H   0  0
   -3.9919  -33.4265   54.9217 H   0  0
   -4.1866  -32.7178   53.0902 H   0  0
   -5.5109  -28.8110   54.5327 H   0  0
   -4.8758  -26.9477   53.0178 H   0  0
   -2.1854  -28.1983   49.6463 H   0  0
   -0.9447  -27.2036   50.4070 H   0  0
   -1.4227  -26.3464   48.1671 H   0  0
   -3.1452  -26.2516   48.5225 H   0  0
   -6.2012  -31.7359   53.6847 H   0  0
   -6.0057  -32.4432   55.5167 H   0  0
  1  2  1  0
  2  3  1  0
  2  4  1  0
  4  5  2  0
  4  9  1  0
  5  6  1  0
  6  7  2  0
  7  8  1  0
  8  9  2  0
  9 10  1  0
 10 11  1  0
 10 21  1  0
 10 36  1  0
 11 12  2  0
 11 13  1  0
 13 14  1  0
 14 15  2  0
 14 19  1  0
 15 16  1  0
 16 17  2  0
 17 18  1  0
 18 19  2  0
 19 20  1  0
 21 22  1  0
 22 23  1  0
 23 24  1  0
 23 35  1  0
 24 25  2  0
 24 34  1  0
 25 26  1  0
 26 27  2  0
 27 28  1  0
 27 33  1  0
 28 29  1  0
 28 32  1  0
 28 37  1  0
 29 30  2  0
 29 31  1  0
 32 37  1  0
 33 34  2  0
 35 36  1  0
  1 38  1  0
  1 39  1  0
  1 40  1  0
  2 41  1  0
  3 42  1  0
  3 43  1  0
  3 44  1  0
  5 45  1  0
  6 46  1  0
  7 47  1  0
  8 48  1  0
 13 49  1  0
 15 50  1  0
 16 51  1  0
 18 52  1  0
 20 53  1  0
 21 54  1  0
 21 55  1  0
 22 56  1  0
 22 57  1  0
 25 58  1  0
 26 59  1  0
 31 60  1  0
 32 61  1  0
 32 62  1  0
 33 63  1  0
 34 64  1  0
 35 65  1  0
 35 66  1  0
 36 67  1  0
 36 68  1  0
 37 69  1  0
 37 70  1  0
M  END
> <Name>
Molecule

> <AbsoluteEnergy>
70.903

> <Clean Energy>
210.713

> <ConfNumber>
25

> <MOL_NUMBER>
1

> <RelativeEnergy>
7.59962

> <POSE_NUMBER>
1

> <LibDockScore>
143.6521

> <HotSpots>
1.67,-24.32,50.98,A,50,5
-5.93,-22.12,45.59,A,14,18
-4.33,-31.92,57.78,P,73,31

$$$$
Molecule
  SciTegic05072616053D

 70 74  0  0  0  0            999 V2000
   -3.4786  -25.2415   47.2554 C   0  0  0  1  0  0
   -3.3663  -23.7843   47.7506 C   0  0  0  1  0  0
   -1.9404  -23.1984   47.7674 C   0  0  0  1  0  0
   -4.2960  -23.4688   48.9165 C   0  0  0  1  0  0
   -5.4147  -22.6801   48.5474 C   0  0  0  1  0  0
   -6.3712  -22.2635   49.4742 C   0  0  0  1  0  0
   -6.2318  -22.6251   50.8109 C   0  0  0  1  0  0
   -5.1453  -23.4074   51.2098 C   0  0  0  1  0  0
   -4.1583  -23.8787   50.2967 C   0  0  0  1  0  0
   -3.0254  -24.7780   50.8528 C   0  0  0  1  0  0
   -1.7036  -23.9845   50.8329 C   0  0  0  1  0  0
   -1.7403  -22.7982   50.5865 O   0  0  0  1  0  0
   -0.4906  -24.5967   51.0988 N   0  0  0  1  0  0
    0.7730  -24.2334   50.6382 C   0  0  0  1  0  0
    0.9691  -23.3497   49.5521 C   0  0  0  1  0  0
    2.2727  -23.0149   49.1426 C   0  0  0  1  0  0
    3.3672  -23.5309   49.7653 N   0  0  0  1  0  0
    3.2045  -24.3938   50.8052 C   0  0  0  1  0  0
    1.9253  -24.7704   51.2690 C   0  0  0  1  0  0
    1.8103  -25.6106   52.2843 O   0  0  0  1  0  0
   -3.2466  -25.1375   52.3659 C   0  0  0  1  0  0
   -2.3698  -26.2554   52.9464 C   0  0  0  1  0  0
   -2.5840  -27.5032   52.1776 N   0  0  0  1  0  0
   -2.9689  -28.6829   52.8026 C   0  0  0  1  0  0
   -3.7161  -29.6628   52.1129 C   0  0  0  1  0  0
   -4.1432  -30.8280   52.7696 C   0  0  0  1  0  0
   -3.8273  -31.0328   54.1256 C   0  0  0  1  0  0
   -4.3325  -32.2604   54.8455 C   0  0  0  1  0  0
   -5.5414  -31.9573   55.7212 C   0  0  0  1  0  0
   -6.1107  -32.8638   56.2855 O   0  0  0  1  0  0
   -5.9424  -30.6921   55.8484 O   0  0  0  1  0  0
   -3.3321  -33.3168   55.2910 C   0  0  0  1  0  0
   -3.0526  -30.0805   54.8090 C   0  0  0  1  0  0
   -2.6258  -28.9153   54.1537 C   0  0  0  1  0  0
   -2.3753  -27.3989   50.7102 C   0  0  0  1  0  0
   -3.0489  -26.1517   50.0864 C   0  0  0  1  0  0
   -4.2805  -33.6147   54.1552 C   0  0  0  1  0  0
   -2.8406  -25.8443   47.9016 H   0  0
   -3.0587  -25.2662   46.2498 H   0  0
   -4.5073  -25.6017   47.2652 H   0  0
   -3.7872  -23.1633   46.9599 H   0  0
   -1.5572  -23.2719   46.7496 H   0  0
   -1.3391  -23.8500   48.4014 H   0  0
   -1.9222  -22.1690   48.1253 H   0  0
   -5.5318  -22.3890   47.5035 H   0  0
   -7.2204  -21.6599   49.1539 H   0  0
   -6.9686  -22.2987   51.5448 H   0  0
   -5.0486  -23.6682   52.2637 H   0  0
   -0.5283  -25.4548   51.7368 H   0  0
    0.1095  -22.9275   49.0316 H   0  0
    2.4091  -22.3270   48.3081 H   0  0
    4.0873  -24.8060   51.2940 H   0  0
    1.2133  -26.3908   51.9136 H   0  0
   -3.0907  -24.2371   52.9601 H   0  0
   -4.2913  -25.4151   52.5057 H   0  0
   -1.3211  -25.9652   52.8818 H   0  0
   -2.6363  -26.4225   53.9900 H   0  0
   -3.9634  -29.5133   51.0619 H   0  0
   -4.7213  -31.5763   52.2274 H   0  0
   -6.1175  -30.3594   54.8680 H   0  0
   -3.6468  -33.8011   56.2154 H   0  0
   -2.3283  -33.0940   54.9292 H   0  0
   -2.7822  -30.2473   55.8517 H   0  0
   -2.0241  -28.1828   54.6917 H   0  0
   -2.7744  -28.2931   50.2314 H   0  0
   -1.3050  -27.3616   50.5076 H   0  0
   -2.6077  -25.9940   49.1023 H   0  0
   -4.0899  -26.4034   49.8836 H   0  0
   -3.7820  -33.5519   53.1879 H   0  0
   -5.1010  -34.2574   54.4741 H   0  0
  1  2  1  0
  2  3  1  0
  2  4  1  0
  4  5  2  0
  4  9  1  0
  5  6  1  0
  6  7  2  0
  7  8  1  0
  8  9  2  0
  9 10  1  0
 10 11  1  0
 10 21  1  0
 10 36  1  0
 11 12  2  0
 11 13  1  0
 13 14  1  0
 14 15  2  0
 14 19  1  0
 15 16  1  0
 16 17  2  0
 17 18  1  0
 18 19  2  0
 19 20  1  0
 21 22  1  0
 22 23  1  0
 23 24  1  0
 23 35  1  0
 24 25  2  0
 24 34  1  0
 25 26  1  0
 26 27  2  0
 27 28  1  0
 27 33  1  0
 28 29  1  0
 28 32  1  0
 28 37  1  0
 29 30  2  0
 29 31  1  0
 32 37  1  0
 33 34  2  0
 35 36  1  0
  1 38  1  0
  1 39  1  0
  1 40  1  0
  2 41  1  0
  3 42  1  0
  3 43  1  0
  3 44  1  0
  5 45  1  0
  6 46  1  0
  7 47  1  0
  8 48  1  0
 13 49  1  0
 15 50  1  0
 16 51  1  0
 18 52  1  0
 20 53  1  0
 21 54  1  0
 21 55  1  0
 22 56  1  0
 22 57  1  0
 25 58  1  0
 26 59  1  0
 31 60  1  0
 32 61  1  0
 32 62  1  0
 33 63  1  0
 34 64  1  0
 35 65  1  0
 35 66  1  0
 36 67  1  0
 36 68  1  0
 37 69  1  0
 37 70  1  0
M  END
> <Name>
Molecule

> <AbsoluteEnergy>
78.3674

> <Clean Energy>
210.713

> <ConfNumber>
74

> <MOL_NUMBER>
1

> <RelativeEnergy>
15.0641

> <POSE_NUMBER>
2

> <LibDockScore>
141.9927

> <HotSpots>
-5.13,-23.32,51.38,A,54,8
3.07,-24.52,50.38,A,43,18
-3.93,-33.72,53.78,A,66,32

$$$$
Molecule
  SciTegic05072616053D

 70 74  0  0  0  0            999 V2000
    1.1760  -26.1186   47.0456 C   0  0  0  1  0  0
    0.5979  -24.7920   47.5917 C   0  0  0  1  0  0
    1.1562  -23.5986   46.7874 C   0  0  0  1  0  0
    0.8378  -24.6367   49.0773 C   0  0  0  1  0  0
    2.1889  -24.7384   49.4917 C   0  0  0  1  0  0
    2.5578  -24.4875   50.8142 C   0  0  0  1  0  0
    1.5794  -24.1205   51.7510 C   0  0  0  1  0  0
    0.2325  -24.0513   51.3674 C   0  0  0  1  0  0
   -0.1952  -24.3770   50.0474 C   0  0  0  1  0  0
   -1.7119  -24.3942   49.7037 C   0  0  0  1  0  0
   -1.9294  -23.4289   48.5088 C   0  0  0  1  0  0
   -1.1106  -22.5558   48.2944 O   0  0  0  1  0  0
   -3.0542  -23.5331   47.6938 N   0  0  0  1  0  0
   -3.5292  -22.6334   46.7240 C   0  0  0  1  0  0
   -2.8122  -21.4834   46.2854 C   0  0  0  1  0  0
   -3.3688  -20.6197   45.3251 C   0  0  0  1  0  0
   -4.5927  -20.8508   44.7830 N   0  0  0  1  0  0
   -5.3011  -21.9476   45.1754 C   0  0  0  1  0  0
   -4.8067  -22.8589   46.1370 C   0  0  0  1  0  0
   -5.5391  -23.9134   46.4855 O   0  0  0  1  0  0
   -2.6172  -23.9118   50.9185 C   0  0  0  1  0  0
   -4.0174  -24.5791   51.0898 C   0  0  0  1  0  0
   -3.9141  -26.0649   51.2117 N   0  0  0  1  0  0
   -4.9301  -26.8567   51.7675 C   0  0  0  1  0  0
   -4.7096  -28.2149   52.1126 C   0  0  0  1  0  0
   -5.7663  -29.0241   52.5783 C   0  0  0  1  0  0
   -7.0699  -28.4979   52.7034 C   0  0  0  1  0  0
   -8.2433  -29.4058   53.0607 C   0  0  0  1  0  0
   -8.5903  -29.5677   54.5522 C   0  0  0  1  0  0
   -7.8086  -30.1226   55.2975 O   0  0  0  1  0  0
   -9.7600  -29.1343   55.0227 O   0  0  0  1  0  0
   -9.3781  -29.5611   52.0537 C   0  0  0  1  0  0
   -7.2722  -27.1236   52.4477 C   0  0  0  1  0  0
   -6.2179  -26.3129   51.9810 C   0  0  0  1  0  0
   -2.6661  -26.6529   50.6514 C   0  0  0  1  0  0
   -2.2188  -25.8520   49.4074 C   0  0  0  1  0  0
   -8.3799  -30.6754   52.2251 C   0  0  0  1  0  0
    2.2625  -26.0992   47.1313 H   0  0
    0.8994  -26.2261   45.9968 H   0  0
    0.7785  -26.9574   47.6170 H   0  0
   -0.4840  -24.8139   47.4611 H   0  0
    0.8796  -23.7112   45.7391 H   0  0
    2.2427  -23.5842   46.8736 H   0  0
    0.7456  -22.6668   47.1764 H   0  0
    2.9527  -25.0172   48.7658 H   0  0
    3.6009  -24.5762   51.1180 H   0  0
    1.8665  -23.8893   52.7768 H   0  0
   -0.5103  -23.7388   52.1013 H   0  0
   -3.6372  -24.4208   47.8240 H   0  0
   -1.8254  -21.2713   46.6969 H   0  0
   -2.8040  -19.7430   45.0079 H   0  0
   -6.2809  -22.1280   44.7333 H   0  0
   -5.6374  -23.8319   47.5277 H   0  0
   -2.7630  -22.8352   50.8307 H   0  0
   -2.0564  -24.0579   51.8416 H   0  0
   -4.6391  -24.3349   50.2284 H   0  0
   -4.4967  -24.1808   51.9841 H   0  0
   -3.7099  -28.6386   52.0165 H   0  0
   -5.5749  -30.0638   52.8437 H   0  0
  -10.4771  -29.6225   54.4312 H   0  0
   -9.1889  -28.9859   51.1474 H   0  0
  -10.3226  -29.7856   52.5493 H   0  0
   -8.2560  -26.6845   52.6134 H   0  0
   -6.3970  -25.2562   51.7827 H   0  0
   -2.8484  -27.6894   50.3677 H   0  0
   -1.8796  -26.6193   51.4053 H   0  0
   -1.4240  -26.4041   48.9059 H   0  0
   -3.0551  -25.7962   48.7105 H   0  0
   -8.7895  -31.4973   52.8123 H   0  0
   -7.6549  -30.6966   51.4114 H   0  0
  1  2  1  0
  2  3  1  0
  2  4  1  0
  4  5  2  0
  4  9  1  0
  5  6  1  0
  6  7  2  0
  7  8  1  0
  8  9  2  0
  9 10  1  0
 10 11  1  0
 10 21  1  0
 10 36  1  0
 11 12  2  0
 11 13  1  0
 13 14  1  0
 14 15  2  0
 14 19  1  0
 15 16  1  0
 16 17  2  0
 17 18  1  0
 18 19  2  0
 19 20  1  0
 21 22  1  0
 22 23  1  0
 23 24  1  0
 23 35  1  0
 24 25  2  0
 24 34  1  0
 25 26  1  0
 26 27  2  0
 27 28  1  0
 27 33  1  0
 28 29  1  0
 28 32  1  0
 28 37  1  0
 29 30  2  0
 29 31  1  0
 32 37  1  0
 33 34  2  0
 35 36  1  0
  1 38  1  0
  1 39  1  0
  1 40  1  0
  2 41  1  0
  3 42  1  0
  3 43  1  0
  3 44  1  0
  5 45  1  0
  6 46  1  0
  7 47  1  0
  8 48  1  0
 13 49  1  0
 15 50  1  0
 16 51  1  0
 18 52  1  0
 20 53  1  0
 21 54  1  0
 21 55  1  0
 22 56  1  0
 22 57  1  0
 25 58  1  0
 26 59  1  0
 31 60  1  0
 32 61  1  0
 32 62  1  0
 33 63  1  0
 34 64  1  0
 35 65  1  0
 35 66  1  0
 36 67  1  0
 36 68  1  0
 37 69  1  0
 37 70  1  0
M  END
> <Name>
Molecule

> <AbsoluteEnergy>
74.905

> <Clean Energy>
210.713

> <ConfNumber>
46

> <MOL_NUMBER>
1

> <RelativeEnergy>
11.6017

> <POSE_NUMBER>
3

> <LibDockScore>
141.9255

> <HotSpots>
1.87,-25.32,48.38,A,30,5
-5.13,-20.52,44.98,P,17,17
-6.33,-26.32,51.98,A,57,34

$$$$
Molecule
  SciTegic05072616053D

 70 74  0  0  0  0            999 V2000
   -3.8187  -25.1318   47.0472 C   0  0  0  1  0  0
   -3.3598  -23.8829   47.8288 C   0  0  0  1  0  0
   -1.8371  -23.7500   48.0304 C   0  0  0  1  0  0
   -4.2811  -23.5234   48.9886 C   0  0  0  1  0  0
   -5.3938  -22.7353   48.6007 C   0  0  0  1  0  0
   -6.3420  -22.2817   49.5186 C   0  0  0  1  0  0
   -6.2000  -22.6042   50.8650 C   0  0  0  1  0  0
   -5.1193  -23.3848   51.2826 C   0  0  0  1  0  0
   -4.1410  -23.8930   50.3799 C   0  0  0  1  0  0
   -3.0144  -24.7862   50.9579 C   0  0  0  1  0  0
   -1.6979  -23.9836   50.9691 C   0  0  0  1  0  0
   -1.7248  -22.8166   50.6427 O   0  0  0  1  0  0
   -0.5014  -24.5659   51.3512 N   0  0  0  1  0  0
    0.7801  -24.2766   50.8877 C   0  0  0  1  0  0
    1.0227  -23.4395   49.7744 C   0  0  0  1  0  0
    2.3426  -23.1788   49.3631 C   0  0  0  1  0  0
    3.4088  -23.7234   50.0102 N   0  0  0  1  0  0
    3.2007  -24.5428   51.0768 C   0  0  0  1  0  0
    1.9030  -24.8446   51.5439 C   0  0  0  1  0  0
    1.7439  -25.6443   52.5857 O   0  0  0  1  0  0
   -3.2659  -25.1517   52.4649 C   0  0  0  1  0  0
   -2.3943  -26.2653   53.0612 C   0  0  0  1  0  0
   -2.5832  -27.5123   52.2844 N   0  0  0  1  0  0
   -2.9734  -28.6964   52.8974 C   0  0  0  1  0  0
   -3.6597  -29.6984   52.1769 C   0  0  0  1  0  0
   -4.0942  -30.8688   52.8193 C   0  0  0  1  0  0
   -3.8466  -31.0568   54.1918 C   0  0  0  1  0  0
   -4.3610  -32.2910   54.8936 C   0  0  0  1  0  0
   -5.6013  -32.0029   55.7295 C   0  0  0  1  0  0
   -6.1401  -32.9066   56.3273 O   0  0  0  1  0  0
   -6.0633  -30.7535   55.7854 O   0  0  0  1  0  0
   -3.3636  -33.3365   55.3708 C   0  0  0  1  0  0
   -3.1319  -30.0818   54.9079 C   0  0  0  1  0  0
   -2.6978  -28.9113   54.2668 C   0  0  0  1  0  0
   -2.3434  -27.4021   50.8222 C   0  0  0  1  0  0
   -3.0118  -26.1577   50.1873 C   0  0  0  1  0  0
   -4.2708  -33.6437   54.2042 C   0  0  0  1  0  0
   -3.4421  -25.9992   47.5893 H   0  0
   -3.3207  -25.0981   46.0782 H   0  0
   -4.9022  -25.1728   46.9357 H   0  0
   -3.5090  -23.0359   47.1592 H   0  0
   -1.3864  -23.7493   47.0379 H   0  0
   -1.5079  -24.6504   48.5490 H   0  0
   -1.5722  -22.8514   48.5875 H   0  0
   -5.5128  -22.4746   47.5490 H   0  0
   -7.1868  -21.6798   49.1839 H   0  0
   -6.9302  -22.2486   51.5919 H   0  0
   -5.0203  -23.6147   52.3435 H   0  0
   -0.5693  -25.3328   52.0942 H   0  0
    0.1864  -22.9957   49.2343 H   0  0
    2.5151  -22.5262   48.5072 H   0  0
    4.0608  -24.9786   51.5851 H   0  0
    1.1136  -26.4082   52.2370 H   0  0
   -3.1291  -24.2520   53.0649 H   0  0
   -4.3115  -25.4368   52.5812 H   0  0
   -1.3465  -25.9678   53.0202 H   0  0
   -2.6822  -26.4373   54.0983 H   0  0
   -3.8538  -29.5620   51.1130 H   0  0
   -4.6250  -31.6342   52.2532 H   0  0
   -6.2324  -30.4781   54.7864 H   0  0
   -3.7029  -33.8255   56.2840 H   0  0
   -2.3511  -33.1017   55.0424 H   0  0
   -2.9139  -30.2350   55.9648 H   0  0
   -2.1430  -28.1610   54.8302 H   0  0
   -2.7258  -28.2976   50.3323 H   0  0
   -1.2692  -27.3569   50.6430 H   0  0
   -2.5503  -25.9941   49.2135 H   0  0
   -4.0464  -26.4159   49.9611 H   0  0
   -3.7416  -33.5740   53.2538 H   0  0
   -5.0939  -34.2962   54.4954 H   0  0
  1  2  1  0
  2  3  1  0
  2  4  1  0
  4  5  2  0
  4  9  1  0
  5  6  1  0
  6  7  2  0
  7  8  1  0
  8  9  2  0
  9 10  1  0
 10 11  1  0
 10 21  1  0
 10 36  1  0
 11 12  2  0
 11 13  1  0
 13 14  1  0
 14 15  2  0
 14 19  1  0
 15 16  1  0
 16 17  2  0
 17 18  1  0
 18 19  2  0
 19 20  1  0
 21 22  1  0
 22 23  1  0
 23 24  1  0
 23 35  1  0
 24 25  2  0
 24 34  1  0
 25 26  1  0
 26 27  2  0
 27 28  1  0
 27 33  1  0
 28 29  1  0
 28 32  1  0
 28 37  1  0
 29 30  2  0
 29 31  1  0
 32 37  1  0
 33 34  2  0
 35 36  1  0
  1 38  1  0
  1 39  1  0
  1 40  1  0
  2 41  1  0
  3 42  1  0
  3 43  1  0
  3 44  1  0
  5 45  1  0
  6 46  1  0
  7 47  1  0
  8 48  1  0
 13 49  1  0
 15 50  1  0
 16 51  1  0
 18 52  1  0
 20 53  1  0
 21 54  1  0
 21 55  1  0
 22 56  1  0
 22 57  1  0
 25 58  1  0
 26 59  1  0
 31 60  1  0
 32 61  1  0
 32 62  1  0
 33 63  1  0
 34 64  1  0
 35 65  1  0
 35 66  1  0
 36 67  1  0
 36 68  1  0
 37 69  1  0
 37 70  1  0
M  END
> <Name>
Molecule

> <AbsoluteEnergy>
78.3674

> <Clean Energy>
210.713

> <ConfNumber>
74

> <MOL_NUMBER>
1

> <RelativeEnergy>
15.0641

> <POSE_NUMBER>
4

> <LibDockScore>
141.2041

> <HotSpots>
-2.93,-26.32,45.98,A,15,1
-5.53,-22.92,48.98,A,33,7
-4.33,-32.92,55.19,A,75,32

$$$$
Molecule
  SciTegic05072616053D

 70 74  0  0  0  0            999 V2000
    0.4337  -25.4735   46.7620 C   0  0  0  1  0  0
   -0.0242  -24.5220   47.8948 C   0  0  0  1  0  0
   -0.3793  -23.1589   47.2671 C   0  0  0  1  0  0
    0.9269  -24.3955   49.0782 C   0  0  0  1  0  0
    2.2180  -23.8793   48.7943 C   0  0  0  1  0  0
    3.1999  -23.7469   49.7780 C   0  0  0  1  0  0
    2.9146  -24.1199   51.0858 C   0  0  0  1  0  0
    1.6453  -24.6084   51.4073 C   0  0  0  1  0  0
    0.6049  -24.7558   50.4436 C   0  0  0  1  0  0
   -0.7811  -25.2518   50.9554 C   0  0  0  1  0  0
   -1.7795  -24.0814   50.8420 C   0  0  0  1  0  0
   -1.3874  -23.0038   50.4499 O   0  0  0  1  0  0
   -3.1150  -24.2383   51.1796 N   0  0  0  1  0  0
   -4.2141  -23.6441   50.5722 C   0  0  0  1  0  0
   -5.3991  -23.5142   51.3289 C   0  0  0  1  0  0
   -6.5329  -22.9037   50.7632 C   0  0  0  1  0  0
   -6.5213  -22.4338   49.4860 N   0  0  0  1  0  0
   -5.3954  -22.5643   48.7306 C   0  0  0  1  0  0
   -4.2243  -23.1750   49.2325 C   0  0  0  1  0  0
   -3.1707  -23.3159   48.4463 O   0  0  0  1  0  0
   -1.2417  -26.5483   50.2062 C   0  0  0  1  0  0
   -2.3133  -27.4850   50.8191 C   0  0  0  1  0  0
   -2.3500  -27.5635   52.3068 N   0  0  0  1  0  0
   -2.8098  -28.7172   52.9440 C   0  0  0  1  0  0
   -2.5444  -28.9751   54.3099 C   0  0  0  1  0  0
   -3.0431  -30.1322   54.9333 C   0  0  0  1  0  0
   -3.8023  -31.0614   54.2010 C   0  0  0  1  0  0
   -4.3442  -32.3052   54.8662 C   0  0  0  1  0  0
   -5.5761  -32.0324   55.7154 C   0  0  0  1  0  0
   -6.1022  -32.9468   56.3069 O   0  0  0  1  0  0
   -6.0473  -30.7887   55.7853 O   0  0  0  1  0  0
   -3.3864  -33.4001   55.3092 C   0  0  0  1  0  0
   -4.0594  -30.8249   52.8400 C   0  0  0  1  0  0
   -3.5686  -29.6661   52.2191 C   0  0  0  1  0  0
   -1.9449  -26.3512   53.0652 C   0  0  0  1  0  0
   -0.7156  -25.6597   52.4665 C   0  0  0  1  0  0
   -4.2824  -33.6261   54.1158 C   0  0  0  1  0  0
    1.3129  -25.0655   46.2633 H   0  0
   -0.3703  -25.6076   46.0383 H   0  0
    0.6879  -26.4417   47.1934 H   0  0
   -0.9036  -24.9715   48.3560 H   0  0
   -1.1885  -23.2783   46.5466 H   0  0
    0.4947  -22.7361   46.7716 H   0  0
   -0.7035  -22.4794   48.0553 H   0  0
    2.4510  -23.5759   47.7736 H   0  0
    4.1837  -23.3536   49.5218 H   0  0
    3.6784  -24.0318   51.8585 H   0  0
    1.4417  -24.8892   52.4406 H   0  0
   -3.3228  -24.8913   52.0014 H   0  0
   -5.4352  -23.8874   52.3524 H   0  0
   -7.4396  -22.8049   51.3601 H   0  0
   -5.3979  -22.1863   47.7083 H   0  0
   -2.9756  -24.3475   48.4589 H   0  0
   -1.5907  -26.2524   49.2169 H   0  0
   -0.3545  -27.1496   50.0076 H   0  0
   -3.2943  -27.1642   50.4687 H   0  0
   -2.1604  -28.4904   50.4269 H   0  0
   -1.9464  -28.2684   54.8853 H   0  0
   -2.8401  -30.3097   55.9894 H   0  0
   -6.2287  -30.5077   54.7900 H   0  0
   -3.7549  -33.9206   56.1932 H   0  0
   -2.3621  -33.1810   55.0076 H   0  0
   -4.6421  -31.5441   52.2645 H   0  0
   -3.7750  -29.4945   51.1627 H   0  0
   -1.7264  -26.6330   54.0952 H   0  0
   -2.7767  -25.6469   53.0781 H   0  0
   -0.5086  -24.7657   53.0548 H   0  0
    0.1448  -26.3139   52.6075 H   0  0
   -3.7355  -33.5284   53.1780 H   0  0
   -5.1289  -34.2665   54.3637 H   0  0
  1  2  1  0
  2  3  1  0
  2  4  1  0
  4  5  2  0
  4  9  1  0
  5  6  1  0
  6  7  2  0
  7  8  1  0
  8  9  2  0
  9 10  1  0
 10 11  1  0
 10 21  1  0
 10 36  1  0
 11 12  2  0
 11 13  1  0
 13 14  1  0
 14 15  2  0
 14 19  1  0
 15 16  1  0
 16 17  2  0
 17 18  1  0
 18 19  2  0
 19 20  1  0
 21 22  1  0
 22 23  1  0
 23 24  1  0
 23 35  1  0
 24 25  2  0
 24 34  1  0
 25 26  1  0
 26 27  2  0
 27 28  1  0
 27 33  1  0
 28 29  1  0
 28 32  1  0
 28 37  1  0
 29 30  2  0
 29 31  1  0
 32 37  1  0
 33 34  2  0
 35 36  1  0
  1 38  1  0
  1 39  1  0
  1 40  1  0
  2 41  1  0
  3 42  1  0
  3 43  1  0
  3 44  1  0
  5 45  1  0
  6 46  1  0
  7 47  1  0
  8 48  1  0
 13 49  1  0
 15 50  1  0
 16 51  1  0
 18 52  1  0
 20 53  1  0
 21 54  1  0
 21 55  1  0
 22 56  1  0
 22 57  1  0
 25 58  1  0
 26 59  1  0
 31 60  1  0
 32 61  1  0
 32 62  1  0
 33 63  1  0
 34 64  1  0
 35 65  1  0
 35 66  1  0
 36 67  1  0
 36 68  1  0
 37 69  1  0
 37 70  1  0
M  END
> <Name>
Molecule

> <AbsoluteEnergy>
77.4633

> <Clean Energy>
210.713

> <ConfNumber>
64

> <MOL_NUMBER>
1

> <RelativeEnergy>
14.16

> <POSE_NUMBER>
5

> <LibDockScore>
138.806

> <HotSpots>
2.67,-23.92,48.98,A,32,5
-5.33,-24.12,49.78,A,36,15
-4.33,-32.92,55.19,A,75,37

$$$$
Molecule
  SciTegic05072616053D

 70 74  0  0  0  0            999 V2000
   -3.8865  -25.3420   46.6442 C   0  0  0  1  0  0
   -3.2796  -24.1008   47.3316 C   0  0  0  1  0  0
   -1.7435  -24.1007   47.4624 C   0  0  0  1  0  0
   -4.1094  -23.5934   48.5051 C   0  0  0  1  0  0
   -5.2081  -22.7884   48.1118 C   0  0  0  1  0  0
   -6.0757  -22.2078   49.0377 C   0  0  0  1  0  0
   -5.8641  -22.4153   50.3975 C   0  0  0  1  0  0
   -4.7951  -23.2086   50.8215 C   0  0  0  1  0  0
   -3.8990  -23.8437   49.9140 C   0  0  0  1  0  0
   -2.7792  -24.7369   50.5052 C   0  0  0  1  0  0
   -1.4381  -23.9816   50.4132 C   0  0  0  1  0  0
   -1.4348  -22.8526   49.9722 O   0  0  0  1  0  0
   -0.2529  -24.5626   50.8310 N   0  0  0  1  0  0
    1.0488  -24.1722   50.5244 C   0  0  0  1  0  0
    1.3528  -23.2655   49.4831 C   0  0  0  1  0  0
    2.6889  -22.9039   49.2313 C   0  0  0  1  0  0
    3.7136  -23.4153   49.9663 N   0  0  0  1  0  0
    3.4476  -24.3000   50.9659 C   0  0  0  1  0  0
    2.1303  -24.7040   51.2737 C   0  0  0  1  0  0
    1.9142  -25.5647   52.2548 O   0  0  0  1  0  0
   -2.9808  -24.9964   52.0413 C   0  0  0  1  0  0
   -2.1221  -26.0994   52.6749 C   0  0  0  1  0  0
   -2.3826  -27.3861   51.9889 N   0  0  0  1  0  0
   -2.7856  -28.5144   52.6925 C   0  0  0  1  0  0
   -3.5620  -29.5194   52.0751 C   0  0  0  1  0  0
   -4.0066  -30.6302   52.8099 C   0  0  0  1  0  0
   -3.6792  -30.7547   54.1729 C   0  0  0  1  0  0
   -4.2024  -31.9219   54.9755 C   0  0  0  1  0  0
   -4.8271  -31.4806   56.2928 C   0  0  0  1  0  0
   -4.3458  -31.8588   57.3366 O   0  0  0  1  0  0
   -5.8931  -30.6804   56.2629 O   0  0  0  1  0  0
   -3.4681  -33.2527   54.9045 C   0  0  0  1  0  0
   -2.8760  -29.7781   54.7855 C   0  0  0  1  0  0
   -2.4317  -28.6672   54.0521 C   0  0  0  1  0  0
   -2.1990  -27.3779   50.5145 C   0  0  0  1  0  0
   -2.8522  -26.1541   49.8261 C   0  0  0  1  0  0
   -4.8255  -33.1107   54.2600 C   0  0  0  1  0  0
   -3.5661  -26.2100   47.2205 H   0  0
   -3.4329  -25.4083   45.6553 H   0  0
   -4.9732  -25.2870   46.5799 H   0  0
   -3.3816  -23.2814   46.6200 H   0  0
   -1.3411  -24.1967   46.4540 H   0  0
   -1.4743  -24.9983   48.0191 H   0  0
   -1.3720  -23.2018   47.9544 H   0  0
   -5.3811  -22.6171   47.0493 H   0  0
   -6.9123  -21.5968   48.6987 H   0  0
   -6.5308  -21.9600   51.1299 H   0  0
   -4.6401  -23.3475   51.8915 H   0  0
   -0.3485  -25.4170   51.4680 H   0  0
    0.5513  -22.8463   48.8748 H   0  0
    2.9081  -22.1985   48.4298 H   0  0
    4.2755  -24.7084   51.5455 H   0  0
    1.3765  -26.3465   51.8051 H   0  0
   -2.7907  -24.0656   52.5757 H   0  0
   -4.0295  -25.2368   52.2162 H   0  0
   -1.0678  -25.8418   52.5743 H   0  0
   -2.3730  -26.1947   53.7313 H   0  0
   -3.8183  -29.4321   51.0193 H   0  0
   -4.6072  -31.3985   52.3231 H   0  0
   -6.6037  -31.1908   55.6824 H   0  0
   -3.5260  -33.7924   55.8497 H   0  0
   -2.6671  -33.2279   54.1656 H   0  0
   -2.5971  -29.8837   55.8339 H   0  0
   -1.8079  -27.9153   54.5355 H   0  0
   -2.6297  -28.2890   50.0990 H   0  0
   -1.1321  -27.3816   50.2915 H   0  0
   -2.4257  -26.0691   48.8266 H   0  0
   -3.9029  -26.3900   49.6573 H   0  0
   -4.7484  -33.0114   53.1773 H   0  0
   -5.6072  -33.5743   54.8618 H   0  0
  1  2  1  0
  2  3  1  0
  2  4  1  0
  4  5  2  0
  4  9  1  0
  5  6  1  0
  6  7  2  0
  7  8  1  0
  8  9  2  0
  9 10  1  0
 10 11  1  0
 10 21  1  0
 10 36  1  0
 11 12  2  0
 11 13  1  0
 13 14  1  0
 14 15  2  0
 14 19  1  0
 15 16  1  0
 16 17  2  0
 17 18  1  0
 18 19  2  0
 19 20  1  0
 21 22  1  0
 22 23  1  0
 23 24  1  0
 23 35  1  0
 24 25  2  0
 24 34  1  0
 25 26  1  0
 26 27  2  0
 27 28  1  0
 27 33  1  0
 28 29  1  0
 28 32  1  0
 28 37  1  0
 29 30  2  0
 29 31  1  0
 32 37  1  0
 33 34  2  0
 35 36  1  0
  1 38  1  0
  1 39  1  0
  1 40  1  0
  2 41  1  0
  3 42  1  0
  3 43  1  0
  3 44  1  0
  5 45  1  0
  6 46  1  0
  7 47  1  0
  8 48  1  0
 13 49  1  0
 15 50  1  0
 16 51  1  0
 18 52  1  0
 20 53  1  0
 21 54  1  0
 21 55  1  0
 22 56  1  0
 22 57  1  0
 25 58  1  0
 26 59  1  0
 31 60  1  0
 32 61  1  0
 32 62  1  0
 33 63  1  0
 34 64  1  0
 35 65  1  0
 35 66  1  0
 36 67  1  0
 36 68  1  0
 37 69  1  0
 37 70  1  0
M  END
> <Name>
Molecule

> <AbsoluteEnergy>
78.3674

> <Clean Energy>
210.713

> <ConfNumber>
74

> <MOL_NUMBER>
1

> <RelativeEnergy>
15.0641

> <POSE_NUMBER>
6

> <LibDockScore>
136.5818

> <HotSpots>
-2.93,-26.32,45.98,A,15,1
-5.53,-22.92,48.98,A,33,7
-4.13,-30.52,57.38,P,71,30

$$$$
Molecule
  SciTegic05072616053D

 70 74  0  0  0  0            999 V2000
   -6.6096  -22.3728   50.1175 C   0  0  0  1  0  0
   -5.2427  -23.0802   50.2357 C   0  0  0  1  0  0
   -4.2613  -22.0923   50.8949 C   0  0  0  1  0  0
   -4.6765  -23.6718   48.9568 C   0  0  0  1  0  0
   -5.2351  -23.1991   47.7417 C   0  0  0  1  0  0
   -4.8063  -23.6617   46.4975 C   0  0  0  1  0  0
   -3.7946  -24.6147   46.4309 C   0  0  0  1  0  0
   -3.2154  -25.0957   47.6103 C   0  0  0  1  0  0
   -3.6204  -24.6585   48.9045 C   0  0  0  1  0  0
   -2.8633  -25.2687   50.1205 C   0  0  0  1  0  0
   -1.5703  -24.5018   50.4531 C   0  0  0  1  0  0
   -1.4851  -23.9956   51.5528 O   0  0  0  1  0  0
   -0.5048  -24.3789   49.5619 N   0  0  0  1  0  0
    0.8321  -24.3129   49.9470 C   0  0  0  1  0  0
    1.2121  -24.6547   51.2660 C   0  0  0  1  0  0
    2.5590  -24.5616   51.6582 C   0  0  0  1  0  0
    3.5264  -24.1682   50.7839 N   0  0  0  1  0  0
    3.1925  -23.8595   49.4988 C   0  0  0  1  0  0
    1.8548  -23.9207   49.0393 C   0  0  0  1  0  0
    1.5793  -23.6047   47.7838 O   0  0  0  1  0  0
   -2.3831  -26.7553   49.8778 C   0  0  0  1  0  0
   -3.5102  -27.8223   49.8541 C   0  0  0  1  0  0
   -4.2673  -27.7360   51.1309 N   0  0  0  1  0  0
   -4.3106  -28.7582   52.0814 C   0  0  0  1  0  0
   -5.3714  -28.7983   53.0156 C   0  0  0  1  0  0
   -5.4210  -29.7870   54.0077 C   0  0  0  1  0  0
   -4.4065  -30.7526   54.0974 C   0  0  0  1  0  0
   -4.4563  -31.7837   55.2097 C   0  0  0  1  0  0
   -3.9539  -31.2646   56.5563 C   0  0  0  1  0  0
   -3.2343  -30.2838   56.6007 O   0  0  0  1  0  0
   -4.3254  -31.9038   57.6738 O   0  0  0  1  0  0
   -4.2412  -33.2503   54.8672 C   0  0  0  1  0  0
   -3.3545  -30.7426   53.1631 C   0  0  0  1  0  0
   -3.3086  -29.7573   52.1594 C   0  0  0  1  0  0
   -4.8625  -26.3911   51.3551 C   0  0  0  1  0  0
   -3.6929  -25.3964   51.4497 C   0  0  0  1  0  0
   -5.6196  -32.7640   55.2329 C   0  0  0  1  0  0
   -6.5229  -21.4819   49.4955 H   0  0
   -6.9818  -22.0999   51.1049 H   0  0
   -7.3185  -23.0577   49.6523 H   0  0
   -5.3981  -23.9676   50.8493 H   0  0
   -4.6116  -21.8168   51.8896 H   0  0
   -4.1527  -21.1988   50.2801 H   0  0
   -3.2885  -22.5752   50.9869 H   0  0
   -6.0255  -22.4496   47.7815 H   0  0
   -5.2607  -23.2792   45.5836 H   0  0
   -3.4546  -24.9851   45.4638 H   0  0
   -2.4198  -25.8371   47.5357 H   0  0
   -0.7283  -24.3324   48.5165 H   0  0
    0.4596  -24.9908   51.9793 H   0  0
    2.8347  -24.8094   52.6832 H   0  0
    3.9774  -23.5571   48.8056 H   0  0
    0.8629  -22.8410   47.8620 H   0  0
   -1.8457  -26.7976   48.9304 H   0  0
   -1.6688  -27.0232   50.6563 H   0  0
   -4.1811  -27.6270   49.0175 H   0  0
   -3.0726  -28.8157   49.7554 H   0  0
   -6.1618  -28.0496   52.9634 H   0  0
   -6.2517  -29.8061   54.7132 H   0  0
   -4.0194  -32.8988   57.5363 H   0  0
   -3.7722  -33.7886   55.6908 H   0  0
   -4.1381  -33.3982   53.7922 H   0  0
   -2.5728  -31.5003   53.2169 H   0  0
   -2.4943  -29.7626   51.4348 H   0  0
   -5.4269  -26.3858   52.2876 H   0  0
   -5.5049  -26.1259   50.5154 H   0  0
   -4.0867  -24.4157   51.7168 H   0  0
   -3.0268  -25.7125   52.2525 H   0  0
   -6.2540  -32.6526   54.3535 H   0  0
   -5.8876  -33.0414   56.2524 H   0  0
  1  2  1  0
  2  3  1  0
  2  4  1  0
  4  5  2  0
  4  9  1  0
  5  6  1  0
  6  7  2  0
  7  8  1  0
  8  9  2  0
  9 10  1  0
 10 11  1  0
 10 21  1  0
 10 36  1  0
 11 12  2  0
 11 13  1  0
 13 14  1  0
 14 15  2  0
 14 19  1  0
 15 16  1  0
 16 17  2  0
 17 18  1  0
 18 19  2  0
 19 20  1  0
 21 22  1  0
 22 23  1  0
 23 24  1  0
 23 35  1  0
 24 25  2  0
 24 34  1  0
 25 26  1  0
 26 27  2  0
 27 28  1  0
 27 33  1  0
 28 29  1  0
 28 32  1  0
 28 37  1  0
 29 30  2  0
 29 31  1  0
 32 37  1  0
 33 34  2  0
 35 36  1  0
  1 38  1  0
  1 39  1  0
  1 40  1  0
  2 41  1  0
  3 42  1  0
  3 43  1  0
  3 44  1  0
  5 45  1  0
  6 46  1  0
  7 47  1  0
  8 48  1  0
 13 49  1  0
 15 50  1  0
 16 51  1  0
 18 52  1  0
 20 53  1  0
 21 54  1  0
 21 55  1  0
 22 56  1  0
 22 57  1  0
 25 58  1  0
 26 59  1  0
 31 60  1  0
 32 61  1  0
 32 62  1  0
 33 63  1  0
 34 64  1  0
 35 65  1  0
 35 66  1  0
 36 67  1  0
 36 68  1  0
 37 69  1  0
 37 70  1  0
M  END
> <Name>
Molecule

> <AbsoluteEnergy>
79.8049

> <Clean Energy>
210.713

> <ConfNumber>
79

> <MOL_NUMBER>
1

> <RelativeEnergy>
16.5015

> <POSE_NUMBER>
7

> <LibDockScore>
136.5433

> <HotSpots>
-3.33,-21.92,50.38,A,47,3
-5.13,-22.92,46.19,A,18,6
-3.33,-33.72,54.98,P,58,31

$$$$
Molecule
  SciTegic05072616053D

 70 74  0  0  0  0            999 V2000
   -2.5877  -22.7555   47.2110 C   0  0  0  1  0  0
   -3.3351  -24.0117   47.6964 C   0  0  0  1  0  0
   -4.0556  -24.7234   46.5336 C   0  0  0  1  0  0
   -4.2607  -23.6814   48.8398 C   0  0  0  1  0  0
   -5.3821  -22.8845   48.5235 C   0  0  0  1  0  0
   -6.3176  -22.5251   49.4971 C   0  0  0  1  0  0
   -6.1382  -22.9507   50.8157 C   0  0  0  1  0  0
   -5.0251  -23.7255   51.1572 C   0  0  0  1  0  0
   -4.0616  -24.1246   50.1896 C   0  0  0  1  0  0
   -2.8736  -25.0109   50.6050 C   0  0  0  1  0  0
   -1.5399  -24.2641   50.3997 C   0  0  0  1  0  0
   -1.5748  -23.0826   50.1397 O   0  0  0  1  0  0
   -0.3274  -24.9132   50.5392 N   0  0  0  1  0  0
    0.9406  -24.4425   50.2268 C   0  0  0  1  0  0
    1.9911  -24.8266   51.0879 C   0  0  0  1  0  0
    3.3022  -24.3838   50.8452 C   0  0  0  1  0  0
    3.5880  -23.5741   49.7885 N   0  0  0  1  0  0
    2.5925  -23.1979   48.9389 C   0  0  0  1  0  0
    1.2533  -23.6156   49.1176 C   0  0  0  1  0  0
    0.3299  -23.2438   48.2470 O   0  0  0  1  0  0
   -3.0531  -26.4071   49.8793 C   0  0  0  1  0  0
   -2.2586  -27.6263   50.4341 C   0  0  0  1  0  0
   -2.2691  -27.6364   51.9176 N   0  0  0  1  0  0
   -2.7777  -28.6731   52.6873 C   0  0  0  1  0  0
   -3.5951  -29.6715   52.1119 C   0  0  0  1  0  0
   -4.2677  -30.5964   52.9287 C   0  0  0  1  0  0
   -4.1228  -30.5423   54.3270 C   0  0  0  1  0  0
   -4.9658  -31.4220   55.2235 C   0  0  0  1  0  0
   -6.3487  -30.8359   55.4872 C   0  0  0  1  0  0
   -7.3252  -31.5520   55.4579 O   0  0  0  1  0  0
   -6.4483  -29.5324   55.7468 O   0  0  0  1  0  0
   -4.3257  -32.1763   56.3764 C   0  0  0  1  0  0
   -3.2004  -29.6406   54.8907 C   0  0  0  1  0  0
   -2.5241  -28.7197   54.0734 C   0  0  0  1  0  0
   -1.8022  -26.3738   52.5349 C   0  0  0  1  0  0
   -2.8225  -25.2926   52.1457 C   0  0  0  1  0  0
   -4.8073  -32.9328   55.1599 C   0  0  0  1  0  0
   -3.3082  -22.0750   46.7573 H   0  0
   -1.8583  -23.0533   46.4577 H   0  0
   -2.0852  -22.2664   48.0455 H   0  0
   -2.5997  -24.7189   48.0800 H   0  0
   -3.3149  -25.0060   45.7856 H   0  0
   -4.7647  -24.0276   46.0851 H   0  0
   -4.5782  -25.6087   46.8958 H   0  0
   -5.5212  -22.5423   47.4980 H   0  0
   -7.1816  -21.9167   49.2297 H   0  0
   -6.8668  -22.6785   51.5793 H   0  0
   -4.8920  -24.0324   52.1946 H   0  0
   -0.3719  -25.9047   50.9389 H   0  0
    1.7844  -25.4689   51.9440 H   0  0
    4.1046  -24.6939   51.5146 H   0  0
    2.8358  -22.5540   48.0937 H   0  0
   -0.4061  -22.7821   48.8366 H   0  0
   -2.7911  -26.2823   48.8286 H   0  0
   -4.1130  -26.6615   49.8874 H   0  0
   -1.2279  -27.5754   50.0833 H   0  0
   -2.7098  -28.5477   50.0660 H   0  0
   -3.7046  -29.7247   51.0287 H   0  0
   -4.9036  -31.3580   52.4774 H   0  0
   -6.0059  -29.0512   54.9251 H   0  0
   -5.0133  -32.2848   57.2151 H   0  0
   -3.2416  -32.0628   56.3759 H   0  0
   -3.0105  -29.6570   55.9639 H   0  0
   -1.7981  -28.0363   54.5140 H   0  0
   -1.7724  -26.4800   53.6193 H   0  0
   -0.8189  -26.1106   52.1450 H   0  0
   -2.5720  -24.3682   52.6662 H   0  0
   -3.8113  -25.6042   52.4822 H   0  0
   -3.9793  -33.2216   54.5125 H   0  0
   -5.7518  -33.4422   55.3512 H   0  0
  1  2  1  0
  2  3  1  0
  2  4  1  0
  4  5  2  0
  4  9  1  0
  5  6  1  0
  6  7  2  0
  7  8  1  0
  8  9  2  0
  9 10  1  0
 10 11  1  0
 10 21  1  0
 10 36  1  0
 11 12  2  0
 11 13  1  0
 13 14  1  0
 14 15  2  0
 14 19  1  0
 15 16  1  0
 16 17  2  0
 17 18  1  0
 18 19  2  0
 19 20  1  0
 21 22  1  0
 22 23  1  0
 23 24  1  0
 23 35  1  0
 24 25  2  0
 24 34  1  0
 25 26  1  0
 26 27  2  0
 27 28  1  0
 27 33  1  0
 28 29  1  0
 28 32  1  0
 28 37  1  0
 29 30  2  0
 29 31  1  0
 32 37  1  0
 33 34  2  0
 35 36  1  0
  1 38  1  0
  1 39  1  0
  1 40  1  0
  2 41  1  0
  3 42  1  0
  3 43  1  0
  3 44  1  0
  5 45  1  0
  6 46  1  0
  7 47  1  0
  8 48  1  0
 13 49  1  0
 15 50  1  0
 16 51  1  0
 18 52  1  0
 20 53  1  0
 21 54  1  0
 21 55  1  0
 22 56  1  0
 22 57  1  0
 25 58  1  0
 26 59  1  0
 31 60  1  0
 32 61  1  0
 32 62  1  0
 33 63  1  0
 34 64  1  0
 35 65  1  0
 35 66  1  0
 36 67  1  0
 36 68  1  0
 37 69  1  0
 37 70  1  0
M  END
> <Name>
Molecule

> <AbsoluteEnergy>
73.6992

> <Clean Energy>
210.713

> <ConfNumber>
40

> <MOL_NUMBER>
1

> <RelativeEnergy>
10.3958

> <POSE_NUMBER>
8

> <LibDockScore>
135.4599

> <HotSpots>
-2.53,-22.32,48.19,A,29,1
-5.53,-22.92,48.98,A,33,5
3.07,-24.52,50.38,A,43,16

$$$$
Molecule
  SciTegic05072616053D

 70 74  0  0  0  0            999 V2000
    1.1480  -23.6105   53.3262 C   0  0  0  1  0  0
    0.2775  -24.3713   52.2970 C   0  0  0  1  0  0
    0.0208  -25.8025   52.8143 C   0  0  0  1  0  0
    0.8081  -24.3803   50.8740 C   0  0  0  1  0  0
    2.1513  -23.9656   50.7166 C   0  0  0  1  0  0
    2.7516  -23.8622   49.4600 C   0  0  0  1  0  0
    2.0263  -24.1945   48.3183 C   0  0  0  1  0  0
    0.7113  -24.6566   48.4420 C   0  0  0  1  0  0
    0.0648  -24.7833   49.7031 C   0  0  0  1  0  0
   -1.3590  -25.3778   49.6519 C   0  0  0  1  0  0
   -2.1998  -24.7536   48.5253 C   0  0  0  1  0  0
   -2.7025  -25.4774   47.6935 O   0  0  0  1  0  0
   -2.3994  -23.3816   48.4572 N   0  0  0  1  0  0
   -3.0654  -22.7448   47.4199 C   0  0  0  1  0  0
   -2.4512  -21.6752   46.7299 C   0  0  0  1  0  0
   -3.1401  -21.0376   45.6808 C   0  0  0  1  0  0
   -4.3936  -21.4238   45.3129 N   0  0  0  1  0  0
   -5.0062  -22.4467   45.9724 C   0  0  0  1  0  0
   -4.3774  -23.1263   47.0356 C   0  0  0  1  0  0
   -5.0179  -24.0928   47.6728 O   0  0  0  1  0  0
   -2.2638  -25.2058   50.9071 C   0  0  0  1  0  0
   -3.6175  -25.9258   50.7912 C   0  0  0  1  0  0
   -3.3767  -27.3826   50.6167 N   0  0  0  1  0  0
   -3.8770  -28.3041   51.5257 C   0  0  0  1  0  0
   -3.4629  -29.6553   51.5034 C   0  0  0  1  0  0
   -3.8423  -30.5303   52.5347 C   0  0  0  1  0  0
   -4.6365  -30.0630   53.5966 C   0  0  0  1  0  0
   -4.8698  -30.9343   54.8090 C   0  0  0  1  0  0
   -3.8889  -30.5829   55.9324 C   0  0  0  1  0  0
   -4.2563  -30.6200   57.0857 O   0  0  0  1  0  0
   -2.6354  -30.2399   55.6026 O   0  0  0  1  0  0
   -6.2838  -31.3638   55.1720 C   0  0  0  1  0  0
   -5.1698  -28.7630   53.5500 C   0  0  0  1  0  0
   -4.7931  -27.8892   52.5191 C   0  0  0  1  0  0
   -2.5207  -27.7491   49.4558 C   0  0  0  1  0  0
   -1.2089  -26.9232   49.4288 C   0  0  0  1  0  0
   -5.3092  -32.3793   54.6227 C   0  0  0  1  0  0
    2.1001  -24.1254   53.4545 H   0  0
    0.6281  -23.5619   54.2830 H   0  0
    1.3321  -22.5987   52.9651 H   0  0
   -0.6577  -23.8171   52.2178 H   0  0
   -0.5022  -25.7599   53.7697 H   0  0
    0.9698  -26.3234   52.9412 H   0  0
   -0.5921  -26.3424   52.0925 H   0  0
    2.7356  -23.7192   51.6032 H   0  0
    3.7837  -23.5228   49.3730 H   0  0
    2.4811  -24.0950   47.3327 H   0  0
    0.1628  -24.9291   47.5403 H   0  0
   -2.0162  -22.7782   49.2534 H   0  0
   -1.4501  -21.3459   47.0084 H   0  0
   -2.6593  -20.2156   45.1504 H   0  0
   -6.0092  -22.7476   45.6699 H   0  0
   -5.0175  -23.7886   48.6778 H   0  0
   -2.4434  -24.1433   51.0713 H   0  0
   -1.7345  -25.5896   51.7793 H   0  0
   -4.1634  -25.5414   49.9296 H   0  0
   -4.1981  -25.7588   51.6984 H   0  0
   -2.8462  -30.0201   50.6820 H   0  0
   -3.5210  -31.5716   52.5117 H   0  0
   -2.7338  -29.4270   54.9453 H   0  0
   -7.0040  -31.0485   54.4170 H   0  0
   -6.4059  -31.4659   56.2503 H   0  0
   -5.8748  -28.4345   54.3136 H   0  0
   -5.2100  -26.8827   52.4839 H   0  0
   -2.2746  -28.8094   49.5137 H   0  0
   -3.0733  -27.5724   48.5330 H   0  0
   -0.7180  -27.0880   48.4697 H   0  0
   -0.5370  -27.3197   50.1900 H   0  0
   -4.9131  -33.0224   55.4086 H   0  0
   -5.5101  -32.6038   53.5752 H   0  0
  1  2  1  0
  2  3  1  0
  2  4  1  0
  4  5  2  0
  4  9  1  0
  5  6  1  0
  6  7  2  0
  7  8  1  0
  8  9  2  0
  9 10  1  0
 10 11  1  0
 10 21  1  0
 10 36  1  0
 11 12  2  0
 11 13  1  0
 13 14  1  0
 14 15  2  0
 14 19  1  0
 15 16  1  0
 16 17  2  0
 17 18  1  0
 18 19  2  0
 19 20  1  0
 21 22  1  0
 22 23  1  0
 23 24  1  0
 23 35  1  0
 24 25  2  0
 24 34  1  0
 25 26  1  0
 26 27  2  0
 27 28  1  0
 27 33  1  0
 28 29  1  0
 28 32  1  0
 28 37  1  0
 29 30  2  0
 29 31  1  0
 32 37  1  0
 33 34  2  0
 35 36  1  0
  1 38  1  0
  1 39  1  0
  1 40  1  0
  2 41  1  0
  3 42  1  0
  3 43  1  0
  3 44  1  0
  5 45  1  0
  6 46  1  0
  7 47  1  0
  8 48  1  0
 13 49  1  0
 15 50  1  0
 16 51  1  0
 18 52  1  0
 20 53  1  0
 21 54  1  0
 21 55  1  0
 22 56  1  0
 22 57  1  0
 25 58  1  0
 26 59  1  0
 31 60  1  0
 32 61  1  0
 32 62  1  0
 33 63  1  0
 34 64  1  0
 35 65  1  0
 35 66  1  0
 36 67  1  0
 36 68  1  0
 37 69  1  0
 37 70  1  0
M  END
> <Name>
Molecule

> <AbsoluteEnergy>
78.2694

> <Clean Energy>
210.713

> <ConfNumber>
72

> <MOL_NUMBER>
1

> <RelativeEnergy>
14.966

> <POSE_NUMBER>
9

> <LibDockScore>
133.2148

> <HotSpots>
0.47,-23.32,53.78,A,67,1
2.67,-22.92,49.98,A,39,6
-5.13,-22.92,46.19,A,18,18

$$$$
Molecule
  SciTegic05072616053D

 70 74  0  0  0  0            999 V2000
    1.1573  -23.6194   53.3817 C   0  0  0  1  0  0
    0.2820  -24.3851   52.3603 C   0  0  0  1  0  0
    0.0352  -25.8166   52.8815 C   0  0  0  1  0  0
    0.8017  -24.3939   50.9333 C   0  0  0  1  0  0
    2.1386  -23.9639   50.7637 C   0  0  0  1  0  0
    2.7279  -23.8588   49.5020 C   0  0  0  1  0  0
    1.9978  -24.2046   48.3674 C   0  0  0  1  0  0
    0.6895  -24.6819   48.5033 C   0  0  0  1  0  0
    0.0543  -24.8109   49.7699 C   0  0  0  1  0  0
   -1.3627  -25.4226   49.7323 C   0  0  0  1  0  0
   -2.2217  -24.8088   48.6138 C   0  0  0  1  0  0
   -2.7467  -25.5411   47.8035 O   0  0  0  1  0  0
   -2.4123  -23.4365   48.5290 N   0  0  0  1  0  0
   -3.0651  -22.8071   47.4789 C   0  0  0  1  0  0
   -2.4282  -21.7659   46.7664 C   0  0  0  1  0  0
   -3.1039  -21.1354   45.7045 C   0  0  0  1  0  0
   -4.3659  -21.5016   45.3453 N   0  0  0  1  0  0
   -5.0002  -22.4968   46.0263 C   0  0  0  1  0  0
   -4.3855  -23.1677   47.1032 C   0  0  0  1  0  0
   -5.0465  -24.1063   47.7608 O   0  0  0  1  0  0
   -2.2574  -25.2614   50.9961 C   0  0  0  1  0  0
   -3.6034  -25.9978   50.8932 C   0  0  0  1  0  0
   -3.3466  -27.4516   50.7164 N   0  0  0  1  0  0
   -3.8270  -28.3790   51.6301 C   0  0  0  1  0  0
   -3.3661  -29.7151   51.6301 C   0  0  0  1  0  0
   -3.7290  -30.5904   52.6671 C   0  0  0  1  0  0
   -4.5532  -30.1383   53.7126 C   0  0  0  1  0  0
   -4.7726  -31.0025   54.9325 C   0  0  0  1  0  0
   -3.8387  -30.5860   56.0736 C   0  0  0  1  0  0
   -4.2509  -30.5662   57.2120 O   0  0  0  1  0  0
   -2.5751  -30.2507   55.7756 O   0  0  0  1  0  0
   -6.1719  -31.4975   55.2682 C   0  0  0  1  0  0
   -5.1304  -28.8583   53.6429 C   0  0  0  1  0  0
   -4.7702  -27.9842   52.6063 C   0  0  0  1  0  0
   -2.4973  -27.8079   49.5474 C   0  0  0  1  0  0
   -1.1959  -26.9661   49.5079 C   0  0  0  1  0  0
   -5.1343  -32.4704   54.7585 C   0  0  0  1  0  0
    2.1125  -24.1302   53.5033 H   0  0
    0.6447  -23.5716   54.3424 H   0  0
    1.3344  -22.6073   53.0178 H   0  0
   -0.6561  -23.8348   52.2875 H   0  0
   -0.4805  -25.7749   53.8409 H   0  0
    0.9873  -26.3334   53.0017 H   0  0
   -0.5811  -26.3600   52.1652 H   0  0
    2.7267  -23.7068   51.6447 H   0  0
    3.7552  -23.5075   49.4055 H   0  0
    2.4437  -24.1038   47.3779 H   0  0
    0.1374  -24.9649   47.6071 H   0  0
   -2.0325  -22.8267   49.3220 H   0  0
   -1.4199  -21.4530   47.0375 H   0  0
   -2.6056  -20.3355   45.1569 H   0  0
   -6.0099  -22.7819   45.7306 H   0  0
   -5.0386  -23.7811   48.7591 H   0  0
   -2.4483  -24.2011   51.1620 H   0  0
   -1.7152  -25.6386   51.8632 H   0  0
   -4.1622  -25.6202   50.0369 H   0  0
   -4.1773  -25.8378   51.8060 H   0  0
   -2.7260  -30.0680   50.8215 H   0  0
   -3.3716  -31.6201   52.6612 H   0  0
   -2.6522  -29.4736   55.0737 H   0  0
   -6.8881  -31.2299   54.4913 H   0  0
   -6.3154  -31.5899   56.3448 H   0  0
   -5.8567  -28.5455   54.3931 H   0  0
   -5.2210  -26.9932   52.5532 H   0  0
   -2.2378  -28.8651   49.6031 H   0  0
   -3.0608  -27.6381   48.6299 H   0  0
   -0.7121  -27.1251   48.5442 H   0  0
   -0.5120  -27.3543   50.2627 H   0  0
   -4.7261  -33.0812   55.5637 H   0  0
   -5.2977  -32.7200   53.7101 H   0  0
  1  2  1  0
  2  3  1  0
  2  4  1  0
  4  5  2  0
  4  9  1  0
  5  6  1  0
  6  7  2  0
  7  8  1  0
  8  9  2  0
  9 10  1  0
 10 11  1  0
 10 21  1  0
 10 36  1  0
 11 12  2  0
 11 13  1  0
 13 14  1  0
 14 15  2  0
 14 19  1  0
 15 16  1  0
 16 17  2  0
 17 18  1  0
 18 19  2  0
 19 20  1  0
 21 22  1  0
 22 23  1  0
 23 24  1  0
 23 35  1  0
 24 25  2  0
 24 34  1  0
 25 26  1  0
 26 27  2  0
 27 28  1  0
 27 33  1  0
 28 29  1  0
 28 32  1  0
 28 37  1  0
 29 30  2  0
 29 31  1  0
 32 37  1  0
 33 34  2  0
 35 36  1  0
  1 38  1  0
  1 39  1  0
  1 40  1  0
  2 41  1  0
  3 42  1  0
  3 43  1  0
  3 44  1  0
  5 45  1  0
  6 46  1  0
  7 47  1  0
  8 48  1  0
 13 49  1  0
 15 50  1  0
 16 51  1  0
 18 52  1  0
 20 53  1  0
 21 54  1  0
 21 55  1  0
 22 56  1  0
 22 57  1  0
 25 58  1  0
 26 59  1  0
 31 60  1  0
 32 61  1  0
 32 62  1  0
 33 63  1  0
 34 64  1  0
 35 65  1  0
 35 66  1  0
 36 67  1  0
 36 68  1  0
 37 69  1  0
 37 70  1  0
M  END
> <Name>
Molecule

> <AbsoluteEnergy>
78.2694

> <Clean Energy>
210.713

> <ConfNumber>
72

> <MOL_NUMBER>
1

> <RelativeEnergy>
14.966

> <POSE_NUMBER>
10

> <LibDockScore>
133.091

> <HotSpots>
2.67,-23.92,48.98,A,32,6
-3.53,-22.32,46.59,A,20,15
-4.33,-32.92,55.19,A,75,37

$$$$
Molecule
  SciTegic05072616053D

 70 74  0  0  0  0            999 V2000
   -6.2289  -22.9247   50.1371 C   0  0  0  1  0  0
   -4.7774  -23.4589   50.1028 C   0  0  0  1  0  0
   -3.8321  -22.3271   50.5510 C   0  0  0  1  0  0
   -4.3315  -24.0922   48.7927 C   0  0  0  1  0  0
   -5.1499  -23.8520   47.6587 C   0  0  0  1  0  0
   -4.8384  -24.3625   46.3968 C   0  0  0  1  0  0
   -3.6835  -25.1206   46.2281 C   0  0  0  1  0  0
   -2.8519  -25.3701   47.3227 C   0  0  0  1  0  0
   -3.1417  -24.8984   48.6321 C   0  0  0  1  0  0
   -2.1227  -25.2725   49.7422 C   0  0  0  1  0  0
   -0.8387  -24.4388   49.5593 C   0  0  0  1  0  0
   -0.7563  -23.6678   48.6279 O   0  0  0  1  0  0
    0.2161  -24.5758   50.4539 N   0  0  0  1  0  0
    1.5455  -24.1728   50.3088 C   0  0  0  1  0  0
    2.0046  -23.3755   49.2323 C   0  0  0  1  0  0
    3.3618  -23.0159   49.1470 C   0  0  0  1  0  0
    4.2617  -23.4066   50.0886 N   0  0  0  1  0  0
    3.8456  -24.1633   51.1407 C   0  0  0  1  0  0
    2.5000  -24.5652   51.2850 C   0  0  0  1  0  0
    2.1414  -25.3021   52.3257 O   0  0  0  1  0  0
   -1.7217  -26.7917   49.6912 C   0  0  0  1  0  0
   -2.9076  -27.7511   49.9224 C   0  0  0  1  0  0
   -3.5826  -27.4696   51.2250 N   0  0  0  1  0  0
   -3.8940  -28.4690   52.1436 C   0  0  0  1  0  0
   -3.1780  -29.6879   52.1693 C   0  0  0  1  0  0
   -3.4975  -30.6907   53.0994 C   0  0  0  1  0  0
   -4.5344  -30.4907   54.0268 C   0  0  0  1  0  0
   -4.8693  -31.5639   55.0331 C   0  0  0  1  0  0
   -3.9914  -31.4972   56.2715 C   0  0  0  1  0  0
   -3.0108  -32.2019   56.3382 O   0  0  0  1  0  0
   -4.3255  -30.6615   57.2534 O   0  0  0  1  0  0
   -5.3214  -32.9305   54.5411 C   0  0  0  1  0  0
   -5.2527  -29.2827   54.0127 C   0  0  0  1  0  0
   -4.9381  -28.2831   53.0779 C   0  0  0  1  0  0
   -3.8965  -26.0331   51.4851 C   0  0  0  1  0  0
   -2.6600  -25.1509   51.2033 C   0  0  0  1  0  0
   -6.3143  -32.0059   55.2024 C   0  0  0  1  0  0
   -6.3311  -22.0783   49.4579 H   0  0
   -6.4891  -22.6163   51.1497 H   0  0
   -6.9070  -23.7176   49.8216 H   0  0
   -4.7370  -24.2988   50.7963 H   0  0
   -4.0784  -22.0152   51.5660 H   0  0
   -3.9204  -21.4773   49.8742 H   0  0
   -2.8054  -22.6926   50.5307 H   0  0
   -6.0507  -23.2496   47.7764 H   0  0
   -5.4957  -24.1684   45.5492 H   0  0
   -3.4287  -25.5182   45.2457 H   0  0
   -1.9428  -25.9508   47.1662 H   0  0
   -0.0229  -25.0554   51.3801 H   0  0
    1.3043  -23.0395   48.4676 H   0  0
    3.7001  -22.4099   48.3065 H   0  0
    4.5725  -24.4678   51.8937 H   0  0
    1.6960  -26.1539   51.9032 H   0  0
   -1.2789  -27.0077   48.7189 H   0  0
   -0.9618  -26.9831   50.4489 H   0  0
   -3.6280  -27.6338   49.1129 H   0  0
   -2.5450  -28.7790   49.9218 H   0  0
   -2.3680  -29.8514   51.4585 H   0  0
   -2.9395  -31.6270   53.1020 H   0  0
   -5.3041  -30.9310   57.5220 H   0  0
   -5.0005  -33.7247   55.2152 H   0  0
   -5.4441  -32.9446   53.4581 H   0  0
   -6.0572  -29.1211   54.7302 H   0  0
   -5.5059  -27.3527   53.0728 H   0  0
   -4.1966  -25.9110   52.5258 H   0  0
   -4.7172  -25.7204   50.8395 H   0  0
   -2.9186  -24.1104   51.3997 H   0  0
   -1.8651  -25.4281   51.8957 H   0  0
   -6.9672  -31.5280   54.4720 H   0  0
   -6.5224  -32.3069   56.2292 H   0  0
  1  2  1  0
  2  3  1  0
  2  4  1  0
  4  5  2  0
  4  9  1  0
  5  6  1  0
  6  7  2  0
  7  8  1  0
  8  9  2  0
  9 10  1  0
 10 11  1  0
 10 21  1  0
 10 36  1  0
 11 12  2  0
 11 13  1  0
 13 14  1  0
 14 15  2  0
 14 19  1  0
 15 16  1  0
 16 17  2  0
 17 18  1  0
 18 19  2  0
 19 20  1  0
 21 22  1  0
 22 23  1  0
 23 24  1  0
 23 35  1  0
 24 25  2  0
 24 34  1  0
 25 26  1  0
 26 27  2  0
 27 28  1  0
 27 33  1  0
 28 29  1  0
 28 32  1  0
 28 37  1  0
 29 30  2  0
 29 31  1  0
 32 37  1  0
 33 34  2  0
 35 36  1  0
  1 38  1  0
  1 39  1  0
  1 40  1  0
  2 41  1  0
  3 42  1  0
  3 43  1  0
  3 44  1  0
  5 45  1  0
  6 46  1  0
  7 47  1  0
  8 48  1  0
 13 49  1  0
 15 50  1  0
 16 51  1  0
 18 52  1  0
 20 53  1  0
 21 54  1  0
 21 55  1  0
 22 56  1  0
 22 57  1  0
 25 58  1  0
 26 59  1  0
 31 60  1  0
 32 61  1  0
 32 62  1  0
 33 63  1  0
 34 64  1  0
 35 65  1  0
 35 66  1  0
 36 67  1  0
 36 68  1  0
 37 69  1  0
 37 70  1  0
M  END
> <Name>
Molecule

> <AbsoluteEnergy>
71.9218

> <Clean Energy>
210.713

> <ConfNumber>
30

> <MOL_NUMBER>
1

> <RelativeEnergy>
8.61848

> <POSE_NUMBER>
11

> <LibDockScore>
130.4323

> <HotSpots>
-3.33,-21.92,50.38,A,47,3
-4.93,-23.52,47.59,A,26,5
-3.33,-32.52,56.19,P,67,30

$$$$
Molecule
  SciTegic05072616053D

 70 74  0  0  0  0            999 V2000
   -1.0230  -23.5048   48.8851 C   0  0  0  1  0  0
   -0.0313  -24.6640   49.0587 C   0  0  0  1  0  0
   -0.4834  -25.9709   48.3803 C   0  0  0  1  0  0
    0.6309  -24.8574   50.4232 C   0  0  0  1  0  0
    2.0133  -24.5380   50.4312 C   0  0  0  1  0  0
    2.7921  -24.6263   51.5854 C   0  0  0  1  0  0
    2.2073  -25.0434   52.7783 C   0  0  0  1  0  0
    0.8511  -25.3799   52.8067 C   0  0  0  1  0  0
    0.0220  -25.3169   51.6528 C   0  0  0  1  0  0
   -1.4567  -25.7387   51.8039 C   0  0  0  1  0  0
   -2.3682  -24.5146   51.6015 C   0  0  0  1  0  0
   -1.8710  -23.4111   51.6441 O   0  0  0  1  0  0
   -3.7329  -24.6656   51.3800 N   0  0  0  1  0  0
   -4.6334  -23.7305   50.8773 C   0  0  0  1  0  0
   -4.2412  -22.4486   50.4231 C   0  0  0  1  0  0
   -5.2066  -21.5481   49.9365 C   0  0  0  1  0  0
   -6.5240  -21.8801   49.8797 N   0  0  0  1  0  0
   -6.9256  -23.1110   50.2996 C   0  0  0  1  0  0
   -6.0114  -24.0625   50.8002 C   0  0  0  1  0  0
   -6.4448  -25.2488   51.1987 O   0  0  0  1  0  0
   -1.7427  -26.9625   50.8633 C   0  0  0  1  0  0
   -2.5164  -28.1684   51.4555 C   0  0  0  1  0  0
   -3.6104  -27.7809   52.3925 N   0  0  0  1  0  0
   -4.8943  -28.3346   52.3302 C   0  0  0  1  0  0
   -6.0135  -27.6306   52.8358 C   0  0  0  1  0  0
   -7.3053  -28.1754   52.7624 C   0  0  0  1  0  0
   -7.5100  -29.4404   52.1879 C   0  0  0  1  0  0
   -8.9020  -30.0228   52.1127 C   0  0  0  1  0  0
   -9.6151  -30.0195   53.4563 C   0  0  0  1  0  0
   -9.5836  -29.0160   54.1316 O   0  0  0  1  0  0
  -10.2568  -31.1196   53.8549 O   0  0  0  1  0  0
   -9.1844  -31.1636   51.1467 C   0  0  0  1  0  0
   -6.4103  -30.1580   51.6893 C   0  0  0  1  0  0
   -5.1177  -29.6133   51.7642 C   0  0  0  1  0  0
   -3.2472  -26.7679   53.4243 C   0  0  0  1  0  0
   -1.8129  -26.2337   53.2492 C   0  0  0  1  0  0
   -9.7377  -29.7892   50.8626 C   0  0  0  1  0  0
   -1.9788  -23.8227   49.3017 H   0  0
   -1.1515  -23.3375   47.8157 H   0  0
   -0.6675  -22.6002   49.3784 H   0  0
    0.8207  -24.2939   48.4884 H   0  0
   -0.6210  -25.7619   47.3194 H   0  0
   -1.4483  -26.2471   48.8054 H   0  0
    0.2462  -26.7674   48.5264 H   0  0
    2.4833  -24.2123   49.5032 H   0  0
    3.8512  -24.3705   51.5536 H   0  0
    2.8055  -25.1073   53.6873 H   0  0
    0.4115  -25.7033   53.7502 H   0  0
   -4.1430  -25.6224   51.6275 H   0  0
   -3.1908  -22.1589   50.4503 H   0  0
   -4.8911  -20.5615   49.5972 H   0  0
   -7.9833  -23.3691   50.2477 H   0  0
   -6.1163  -25.3285   52.1928 H   0  0
   -0.7904  -27.3273   50.4783 H   0  0
   -2.2913  -26.6023   49.9930 H   0  0
   -1.8148  -28.8138   51.9840 H   0  0
   -2.9442  -28.7489   50.6381 H   0  0
   -5.8700  -26.6499   53.2893 H   0  0
   -8.1537  -27.6137   53.1533 H   0  0
   -9.5324  -31.8794   53.8353 H   0  0
   -9.9517  -31.8344   51.5332 H   0  0
   -8.3167  -31.3847   50.5252 H   0  0
   -6.5605  -31.1409   51.2427 H   0  0
   -4.2724  -30.1844   51.3802 H   0  0
   -3.3403  -27.2176   54.4128 H   0  0
   -3.9466  -25.9340   53.3647 H   0  0
   -1.6615  -25.4109   53.9479 H   0  0
   -1.1128  -27.0202   53.5310 H   0  0
   -9.1656  -29.2770   50.0890 H   0  0
  -10.8000  -29.7261   51.0985 H   0  0
  1  2  1  0
  2  3  1  0
  2  4  1  0
  4  5  2  0
  4  9  1  0
  5  6  1  0
  6  7  2  0
  7  8  1  0
  8  9  2  0
  9 10  1  0
 10 11  1  0
 10 21  1  0
 10 36  1  0
 11 12  2  0
 11 13  1  0
 13 14  1  0
 14 15  2  0
 14 19  1  0
 15 16  1  0
 16 17  2  0
 17 18  1  0
 18 19  2  0
 19 20  1  0
 21 22  1  0
 22 23  1  0
 23 24  1  0
 23 35  1  0
 24 25  2  0
 24 34  1  0
 25 26  1  0
 26 27  2  0
 27 28  1  0
 27 33  1  0
 28 29  1  0
 28 32  1  0
 28 37  1  0
 29 30  2  0
 29 31  1  0
 32 37  1  0
 33 34  2  0
 35 36  1  0
  1 38  1  0
  1 39  1  0
  1 40  1  0
  2 41  1  0
  3 42  1  0
  3 43  1  0
  3 44  1  0
  5 45  1  0
  6 46  1  0
  7 47  1  0
  8 48  1  0
 13 49  1  0
 15 50  1  0
 16 51  1  0
 18 52  1  0
 20 53  1  0
 21 54  1  0
 21 55  1  0
 22 56  1  0
 22 57  1  0
 25 58  1  0
 26 59  1  0
 31 60  1  0
 32 61  1  0
 32 62  1  0
 33 63  1  0
 34 64  1  0
 35 65  1  0
 35 66  1  0
 36 67  1  0
 36 68  1  0
 37 69  1  0
 37 70  1  0
M  END
> <Name>
Molecule

> <AbsoluteEnergy>
75.2083

> <Clean Energy>
210.713

> <ConfNumber>
49

> <MOL_NUMBER>
1

> <RelativeEnergy>
11.9049

> <POSE_NUMBER>
12

> <LibDockScore>
129.0281

> <HotSpots>
1.67,-24.32,50.98,A,50,5
-4.73,-22.32,50.38,A,46,15
-7.93,-28.32,52.38,A,59,26

$$$$
Molecule
  SciTegic05072616053D

 70 74  0  0  0  0            999 V2000
   -2.6076  -28.9910   49.6818 C   0  0  0  1  0  0
   -1.8712  -27.6542   49.8956 C   0  0  0  1  0  0
   -0.8077  -27.4990   48.7855 C   0  0  0  1  0  0
   -2.8516  -26.5035   50.0374 C   0  0  0  1  0  0
   -2.8212  -25.5064   49.0269 C   0  0  0  1  0  0
   -3.7497  -24.4606   48.9942 C   0  0  0  1  0  0
   -4.7380  -24.3803   49.9758 C   0  0  0  1  0  0
   -4.7606  -25.3209   51.0111 C   0  0  0  1  0  0
   -3.8072  -26.3687   51.1111 C   0  0  0  1  0  0
   -3.9565  -27.2360   52.3864 C   0  0  0  1  0  0
   -5.1587  -28.1685   52.1586 C   0  0  0  1  0  0
   -5.0242  -29.0235   51.3108 O   0  0  0  1  0  0
   -6.3551  -28.0537   52.8623 N   0  0  0  1  0  0
   -7.4954  -28.8483   52.6895 C   0  0  0  1  0  0
   -7.5063  -29.9274   51.7703 C   0  0  0  1  0  0
   -8.6641  -30.7046   51.5942 C   0  0  0  1  0  0
   -9.7957  -30.4600   52.3044 N   0  0  0  1  0  0
   -9.8138  -29.4458   53.2097 C   0  0  0  1  0  0
   -8.6912  -28.6203   53.4357 C   0  0  0  1  0  0
   -8.8252  -27.6641   54.3425 O   0  0  0  1  0  0
   -2.7775  -28.1692   52.8298 C   0  0  0  1  0  0
   -1.5504  -27.4729   53.4914 C   0  0  0  1  0  0
   -1.5853  -25.9990   53.2777 N   0  0  0  1  0  0
   -0.5801  -25.3347   52.5677 C   0  0  0  1  0  0
    0.7916  -25.6285   52.7797 C   0  0  0  1  0  0
    1.7782  -25.1078   51.9242 C   0  0  0  1  0  0
    1.4091  -24.2805   50.8515 C   0  0  0  1  0  0
    2.4206  -23.8893   49.8027 C   0  0  0  1  0  0
    2.1090  -24.5935   48.4862 C   0  0  0  1  0  0
    1.7829  -23.9381   47.5245 O   0  0  0  1  0  0
    2.1743  -25.9234   48.4168 O   0  0  0  1  0  0
    3.8756  -23.6496   50.1754 C   0  0  0  1  0  0
    0.0766  -23.8522   50.7311 C   0  0  0  1  0  0
   -0.9083  -24.3755   51.5813 C   0  0  0  1  0  0
   -2.8342  -25.3454   53.7882 C   0  0  0  1  0  0
   -4.0690  -26.2782   53.6275 C   0  0  0  1  0  0
    2.9996  -22.4844   49.7844 C   0  0  0  1  0  0
   -1.9012  -29.8191   49.7399 H   0  0
   -3.0981  -28.9947   48.7084 H   0  0
   -3.3610  -29.1107   50.4604 H   0  0
   -1.3316  -27.6429   50.8426 H   0  0
   -1.2882  -27.4944   47.8071 H   0  0
   -0.0913  -28.3188   48.8386 H   0  0
   -0.2803  -26.5557   48.9273 H   0  0
   -2.0530  -25.5573   48.2552 H   0  0
   -3.7013  -23.7109   48.2045 H   0  0
   -5.4875  -23.5899   49.9363 H   0  0
   -5.5396  -25.2467   51.7699 H   0  0
   -6.4081  -27.2856   53.6054 H   0  0
   -6.6091  -30.1564   51.1952 H   0  0
   -8.6536  -31.5211   50.8722 H   0  0
  -10.7250  -29.2642   53.7797 H   0  0
   -8.5681  -26.7957   53.8112 H   0  0
   -3.1683  -28.9110   53.5263 H   0  0
   -2.4291  -28.7236   51.9584 H   0  0
   -1.5539  -27.6795   54.5616 H   0  0
   -0.6330  -27.8750   53.0615 H   0  0
    1.0837  -26.2649   53.6150 H   0  0
    2.8283  -25.3460   52.0934 H   0  0
    1.5242  -26.2629   49.1682 H   0  0
    4.5482  -23.9363   49.3670 H   0  0
    4.0246  -23.6968   51.2541 H   0  0
   -0.1919  -23.1128   49.9765 H   0  0
   -1.9401  -24.0387   51.4807 H   0  0
   -2.7051  -25.1003   54.8424 H   0  0
   -3.0084  -24.4223   53.2353 H   0  0
   -4.9641  -25.6651   53.5225 H   0  0
   -4.1788  -26.8781   54.5309 H   0  0
    2.6830  -21.9095   50.6546 H   0  0
    3.2051  -22.1499   48.7675 H   0  0
  1  2  1  0
  2  3  1  0
  2  4  1  0
  4  5  2  0
  4  9  1  0
  5  6  1  0
  6  7  2  0
  7  8  1  0
  8  9  2  0
  9 10  1  0
 10 11  1  0
 10 21  1  0
 10 36  1  0
 11 12  2  0
 11 13  1  0
 13 14  1  0
 14 15  2  0
 14 19  1  0
 15 16  1  0
 16 17  2  0
 17 18  1  0
 18 19  2  0
 19 20  1  0
 21 22  1  0
 22 23  1  0
 23 24  1  0
 23 35  1  0
 24 25  2  0
 24 34  1  0
 25 26  1  0
 26 27  2  0
 27 28  1  0
 27 33  1  0
 28 29  1  0
 28 32  1  0
 28 37  1  0
 29 30  2  0
 29 31  1  0
 32 37  1  0
 33 34  2  0
 35 36  1  0
  1 38  1  0
  1 39  1  0
  1 40  1  0
  2 41  1  0
  3 42  1  0
  3 43  1  0
  3 44  1  0
  5 45  1  0
  6 46  1  0
  7 47  1  0
  8 48  1  0
 13 49  1  0
 15 50  1  0
 16 51  1  0
 18 52  1  0
 20 53  1  0
 21 54  1  0
 21 55  1  0
 22 56  1  0
 22 57  1  0
 25 58  1  0
 26 59  1  0
 31 60  1  0
 32 61  1  0
 32 62  1  0
 33 63  1  0
 34 64  1  0
 35 65  1  0
 35 66  1  0
 36 67  1  0
 36 68  1  0
 37 69  1  0
 37 70  1  0
M  END
> <Name>
Molecule

> <AbsoluteEnergy>
82.4536

> <Clean Energy>
210.713

> <ConfNumber>
102

> <MOL_NUMBER>
1

> <RelativeEnergy>
19.1503

> <POSE_NUMBER>
13

> <LibDockScore>
128.9207

> <HotSpots>
-6.53,-30.72,51.78,A,56,15
2.27,-24.92,52.19,A,58,26
4.07,-23.72,49.78,A,37,32

$$$$
Molecule
  SciTegic05072616053D

 70 74  0  0  0  0            999 V2000
   -2.5787  -28.8647   49.7460 C   0  0  0  1  0  0
   -1.8293  -27.5333   49.9477 C   0  0  0  1  0  0
   -0.8296  -27.3540   48.7832 C   0  0  0  1  0  0
   -2.7982  -26.3856   50.1698 C   0  0  0  1  0  0
   -2.8006  -25.3506   49.1977 C   0  0  0  1  0  0
   -3.7247  -24.3013   49.2398 C   0  0  0  1  0  0
   -4.6754  -24.2553   50.2599 C   0  0  0  1  0  0
   -4.6640  -25.2349   51.2586 C   0  0  0  1  0  0
   -3.7126  -26.2889   51.2829 C   0  0  0  1  0  0
   -3.8185  -27.2040   52.5288 C   0  0  0  1  0  0
   -5.0460  -28.1076   52.3208 C   0  0  0  1  0  0
   -4.9783  -28.9081   51.4138 O   0  0  0  1  0  0
   -6.1933  -28.0256   53.1061 N   0  0  0  1  0  0
   -7.3922  -28.7177   52.8933 C   0  0  0  1  0  0
   -7.6162  -29.4486   51.6996 C   0  0  0  1  0  0
   -8.8319  -30.1231   51.4920 C   0  0  0  1  0  0
   -9.8171  -30.1104   52.4268 N   0  0  0  1  0  0
   -9.6277  -29.4363   53.5923 C   0  0  0  1  0  0
   -8.4358  -28.7318   53.8676 C   0  0  0  1  0  0
   -8.3638  -28.1125   55.0363 O   0  0  0  1  0  0
   -2.6369  -28.1727   52.8799 C   0  0  0  1  0  0
   -1.3688  -27.5228   53.5105 C   0  0  0  1  0  0
   -1.3875  -26.0411   53.3566 N   0  0  0  1  0  0
   -0.4044  -25.3649   52.6272 C   0  0  0  1  0  0
    0.9739  -25.6526   52.8017 C   0  0  0  1  0  0
    1.9356  -25.1188   51.9260 C   0  0  0  1  0  0
    1.5347  -24.2845   50.8703 C   0  0  0  1  0  0
    2.5170  -23.8784   49.7996 C   0  0  0  1  0  0
    2.1689  -24.5638   48.4824 C   0  0  0  1  0  0
    1.8687  -23.8914   47.5240 O   0  0  0  1  0  0
    2.1741  -25.8951   48.4088 O   0  0  0  1  0  0
    3.9819  -23.6441   50.1354 C   0  0  0  1  0  0
    0.1972  -23.8629   50.7875 C   0  0  0  1  0  0
   -0.7629  -24.3992   51.6578 C   0  0  0  1  0  0
   -2.6000  -25.3888   53.9498 C   0  0  0  1  0  0
   -3.8570  -26.2948   53.8103 C   0  0  0  1  0  0
    3.0959  -22.4734   49.7854 C   0  0  0  1  0  0
   -1.8715  -29.6942   49.7459 H   0  0
   -3.1232  -28.8466   48.8019 H   0  0
   -3.2873  -29.0014   50.5629 H   0  0
   -1.2374  -27.5432   50.8629 H   0  0
   -1.3643  -27.3275   47.8337 H   0  0
   -0.1126  -28.1750   48.7777 H   0  0
   -0.2935  -26.4143   48.9160 H   0  0
   -2.0619  -25.3744   48.3965 H   0  0
   -3.7021  -23.5220   48.4780 H   0  0
   -5.4220  -23.4614   50.2786 H   0  0
   -5.4139  -25.1873   52.0482 H   0  0
   -6.1552  -27.3718   53.9523 H   0  0
   -6.8392  -29.4879   50.9362 H   0  0
   -8.9872  -30.6680   50.5608 H   0  0
  -10.4222  -29.4400   54.3385 H   0  0
   -8.1443  -27.1218   54.7666 H   0  0
   -3.0083  -28.9356   53.5641 H   0  0
   -2.3385  -28.6972   51.9721 H   0  0
   -1.3269  -27.7719   54.5708 H   0  0
   -0.4792  -27.9218   53.0231 H   0  0
    1.2907  -26.2945   53.6237 H   0  0
    2.9910  -25.3523   52.0665 H   0  0
    1.5124  -26.2074   49.1619 H   0  0
    4.6317  -23.9193   49.3047 H   0  0
    4.1606  -23.7068   51.2088 H   0  0
   -0.0945  -23.1186   50.0465 H   0  0
   -1.7988  -24.0676   51.5863 H   0  0
   -2.4184  -25.1880   55.0057 H   0  0
   -2.7831  -24.4418   53.4421 H   0  0
   -4.7451  -25.6640   53.7711 H   0  0
   -3.9358  -26.9284   54.6937 H   0  0
    2.8037  -21.9109   50.6722 H   0  0
    3.2734  -22.1245   48.7681 H   0  0
  1  2  1  0
  2  3  1  0
  2  4  1  0
  4  5  2  0
  4  9  1  0
  5  6  1  0
  6  7  2  0
  7  8  1  0
  8  9  2  0
  9 10  1  0
 10 11  1  0
 10 21  1  0
 10 36  1  0
 11 12  2  0
 11 13  1  0
 13 14  1  0
 14 15  2  0
 14 19  1  0
 15 16  1  0
 16 17  2  0
 17 18  1  0
 18 19  2  0
 19 20  1  0
 21 22  1  0
 22 23  1  0
 23 24  1  0
 23 35  1  0
 24 25  2  0
 24 34  1  0
 25 26  1  0
 26 27  2  0
 27 28  1  0
 27 33  1  0
 28 29  1  0
 28 32  1  0
 28 37  1  0
 29 30  2  0
 29 31  1  0
 32 37  1  0
 33 34  2  0
 35 36  1  0
  1 38  1  0
  1 39  1  0
  1 40  1  0
  2 41  1  0
  3 42  1  0
  3 43  1  0
  3 44  1  0
  5 45  1  0
  6 46  1  0
  7 47  1  0
  8 48  1  0
 13 49  1  0
 15 50  1  0
 16 51  1  0
 18 52  1  0
 20 53  1  0
 21 54  1  0
 21 55  1  0
 22 56  1  0
 22 57  1  0
 25 58  1  0
 26 59  1  0
 31 60  1  0
 32 61  1  0
 32 62  1  0
 33 63  1  0
 34 64  1  0
 35 65  1  0
 35 66  1  0
 36 67  1  0
 36 68  1  0
 37 69  1  0
 37 70  1  0
M  END
> <Name>
Molecule

> <AbsoluteEnergy>
82.4536

> <Clean Energy>
210.713

> <ConfNumber>
102

> <MOL_NUMBER>
1

> <RelativeEnergy>
19.1503

> <POSE_NUMBER>
14

> <LibDockScore>
128.0887

> <HotSpots>
-5.33,-24.12,49.78,A,36,7
-8.53,-31.32,51.19,A,51,16
-9.53,-30.12,52.78,A,62,18

$$$$
Molecule
  SciTegic05072616053D

 70 74  0  0  0  0            999 V2000
   -0.9461  -23.6815   48.7519 C   0  0  0  1  0  0
    0.1535  -24.7292   48.9767 C   0  0  0  1  0  0
   -0.1297  -26.0793   48.2914 C   0  0  0  1  0  0
    0.7740  -24.8461   50.3692 C   0  0  0  1  0  0
    2.1567  -24.5294   50.4005 C   0  0  0  1  0  0
    2.9005  -24.5536   51.5808 C   0  0  0  1  0  0
    2.2788  -24.9011   52.7773 C   0  0  0  1  0  0
    0.9211  -25.2327   52.7840 C   0  0  0  1  0  0
    0.1270  -25.2337   51.6041 C   0  0  0  1  0  0
   -1.3570  -25.6433   51.7344 C   0  0  0  1  0  0
   -2.2573  -24.4273   51.4495 C   0  0  0  1  0  0
   -1.7699  -23.3205   51.5132 O   0  0  0  1  0  0
   -3.6015  -24.5892   51.1313 N   0  0  0  1  0  0
   -4.5180  -23.6172   50.7400 C   0  0  0  1  0  0
   -4.1432  -22.2943   50.4040 C   0  0  0  1  0  0
   -5.1240  -21.3587   50.0266 C   0  0  0  1  0  0
   -6.4402  -21.6942   49.9649 N   0  0  0  1  0  0
   -6.8255  -22.9631   50.2718 C   0  0  0  1  0  0
   -5.8953  -23.9512   50.6593 C   0  0  0  1  0  0
   -6.3131  -25.1738   50.9500 O   0  0  0  1  0  0
   -1.6228  -26.9094   50.8454 C   0  0  0  1  0  0
   -2.4176  -28.0835   51.4725 C   0  0  0  1  0  0
   -3.5349  -27.6486   52.3599 N   0  0  0  1  0  0
   -4.8191  -28.2006   52.2887 C   0  0  0  1  0  0
   -5.9505  -27.4630   52.7122 C   0  0  0  1  0  0
   -7.2422  -28.0068   52.6292 C   0  0  0  1  0  0
   -7.4346  -29.3041   52.1271 C   0  0  0  1  0  0
   -8.8265  -29.8851   52.0412 C   0  0  0  1  0  0
   -9.5319  -29.9257   53.3883 C   0  0  0  1  0  0
   -9.5106  -28.9390   54.0885 O   0  0  0  1  0  0
  -10.1559  -31.0443   53.7626 O   0  0  0  1  0  0
   -9.1135  -30.9947   51.0408 C   0  0  0  1  0  0
   -6.3229  -30.0548   51.7108 C   0  0  0  1  0  0
   -5.0305  -29.5110   51.7953 C   0  0  0  1  0  0
   -3.1954  -26.5890   53.3522 C   0  0  0  1  0  0
   -1.7545  -26.0681   53.1913 C   0  0  0  1  0  0
   -9.6696  -29.6125   50.8041 C   0  0  0  1  0  0
   -1.8800  -24.0965   49.1310 H   0  0
   -1.0460  -23.5332   47.6767 H   0  0
   -0.7087  -22.7424   49.2517 H   0  0
    0.9852  -24.2738   48.4391 H   0  0
   -0.2434  -25.8904   47.2239 H   0  0
   -1.0774  -26.4537   48.6783 H   0  0
    0.6726  -26.7940   48.4747 H   0  0
    2.6553  -24.2577   49.4701 H   0  0
    3.9610  -24.3022   51.5663 H   0  0
    2.8493  -24.9145   53.7060 H   0  0
    0.4524  -25.5011   53.7308 H   0  0
   -3.9794  -25.5882   51.1954 H   0  0
   -3.0942  -22.0002   50.4376 H   0  0
   -4.8217  -20.3414   49.7779 H   0  0
   -7.8825  -23.2235   50.2167 H   0  0
   -5.9633  -25.3464   51.9248 H   0  0
   -0.6620  -27.2950   50.5042 H   0  0
   -2.1460  -26.5891   49.9444 H   0  0
   -1.7335  -28.7054   52.0499 H   0  0
   -2.8257  -28.7006   50.6721 H   0  0
   -5.8168  -26.4567   53.1091 H   0  0
   -8.1000  -27.4191   52.9561 H   0  0
   -9.4210  -31.7931   53.7200 H   0  0
   -9.8780  -31.6783   51.4101 H   0  0
   -8.2492  -31.1949   50.4075 H   0  0
   -6.4635  -31.0629   51.3208 H   0  0
   -4.1761  -30.1076   51.4758 H   0  0
   -3.3173  -26.9911   54.3580 H   0  0
   -3.8893  -25.7567   53.2341 H   0  0
   -1.6186  -25.2136   53.8542 H   0  0
   -1.0657  -26.8425   53.5290 H   0  0
   -9.1024  -29.0752   50.0440 H   0  0
  -10.7306  -29.5581   51.0480 H   0  0
  1  2  1  0
  2  3  1  0
  2  4  1  0
  4  5  2  0
  4  9  1  0
  5  6  1  0
  6  7  2  0
  7  8  1  0
  8  9  2  0
  9 10  1  0
 10 11  1  0
 10 21  1  0
 10 36  1  0
 11 12  2  0
 11 13  1  0
 13 14  1  0
 14 15  2  0
 14 19  1  0
 15 16  1  0
 16 17  2  0
 17 18  1  0
 18 19  2  0
 19 20  1  0
 21 22  1  0
 22 23  1  0
 23 24  1  0
 23 35  1  0
 24 25  2  0
 24 34  1  0
 25 26  1  0
 26 27  2  0
 27 28  1  0
 27 33  1  0
 28 29  1  0
 28 32  1  0
 28 37  1  0
 29 30  2  0
 29 31  1  0
 32 37  1  0
 33 34  2  0
 35 36  1  0
  1 38  1  0
  1 39  1  0
  1 40  1  0
  2 41  1  0
  3 42  1  0
  3 43  1  0
  3 44  1  0
  5 45  1  0
  6 46  1  0
  7 47  1  0
  8 48  1  0
 13 49  1  0
 15 50  1  0
 16 51  1  0
 18 52  1  0
 20 53  1  0
 21 54  1  0
 21 55  1  0
 22 56  1  0
 22 57  1  0
 25 58  1  0
 26 59  1  0
 31 60  1  0
 32 61  1  0
 32 62  1  0
 33 63  1  0
 34 64  1  0
 35 65  1  0
 35 66  1  0
 36 67  1  0
 36 68  1  0
 37 69  1  0
 37 70  1  0
M  END
> <Name>
Molecule

> <AbsoluteEnergy>
75.2083

> <Clean Energy>
210.713

> <ConfNumber>
49

> <MOL_NUMBER>
1

> <RelativeEnergy>
11.9049

> <POSE_NUMBER>
15

> <LibDockScore>
127.6108

> <HotSpots>
0.87,-24.32,52.78,A,63,8
-4.73,-22.32,50.38,A,46,15
-8.53,-31.32,51.19,A,51,32

$$$$
Molecule
  SciTegic05072616053D

 70 74  0  0  0  0            999 V2000
   -6.7753  -22.2554   49.9160 C   0  0  0  1  0  0
   -5.3832  -22.8439   50.2493 C   0  0  0  1  0  0
   -4.4796  -21.7131   50.7721 C   0  0  0  1  0  0
   -4.7160  -23.6387   49.1381 C   0  0  0  1  0  0
   -5.1701  -23.3800   47.8191 C   0  0  0  1  0  0
   -4.6499  -24.0490   46.7096 C   0  0  0  1  0  0
   -3.6431  -24.9932   46.8872 C   0  0  0  1  0  0
   -3.1621  -25.2584   48.1718 C   0  0  0  1  0  0
   -3.6671  -24.6143   49.3354 C   0  0  0  1  0  0
   -3.0180  -25.0164   50.6878 C   0  0  0  1  0  0
   -1.6095  -24.4189   50.8275 C   0  0  0  1  0  0
   -1.3650  -23.6948   51.7672 O   0  0  0  1  0  0
   -0.6271  -24.7007   49.8888 N   0  0  0  1  0  0
    0.7429  -24.5328   50.0462 C   0  0  0  1  0  0
    1.4988  -24.1111   48.9295 C   0  0  0  1  0  0
    2.8849  -23.9090   49.0537 C   0  0  0  1  0  0
    3.5291  -24.1154   50.2352 N   0  0  0  1  0  0
    2.8244  -24.5398   51.3203 C   0  0  0  1  0  0
    1.4318  -24.7714   51.2636 C   0  0  0  1  0  0
    0.7981  -25.2228   52.3334 O   0  0  0  1  0  0
   -2.8652  -26.5651   50.8653 C   0  0  0  1  0  0
   -4.2011  -27.3417   50.8523 C   0  0  0  1  0  0
   -5.2292  -26.7773   51.7851 N   0  0  0  1  0  0
   -6.1589  -27.5868   52.4376 C   0  0  0  1  0  0
   -5.9603  -28.9797   52.5883 C   0  0  0  1  0  0
   -6.9241  -29.7788   53.2275 C   0  0  0  1  0  0
   -8.0993  -29.2007   53.7369 C   0  0  0  1  0  0
   -9.1457  -30.0579   54.4093 C   0  0  0  1  0  0
  -10.1506  -30.6411   53.4278 C   0  0  0  1  0  0
  -10.2822  -30.1198   52.3431 O   0  0  0  1  0  0
  -10.8618  -31.7118   53.7845 O   0  0  0  1  0  0
   -9.6488  -29.6680   55.7911 C   0  0  0  1  0  0
   -8.3012  -27.8164   53.6103 C   0  0  0  1  0  0
   -7.3411  -27.0178   52.9685 C   0  0  0  1  0  0
   -5.2579  -25.2914   51.9582 C   0  0  0  1  0  0
   -3.8463  -24.6746   51.9578 C   0  0  0  1  0  0
   -8.7594  -30.8766   55.6322 C   0  0  0  1  0  0
   -6.6780  -21.4864   49.1496 H   0  0
   -7.2188  -21.8234   50.8131 H   0  0
   -7.4214  -23.0510   49.5448 H   0  0
   -5.5441  -23.5971   51.0206 H   0  0
   -4.9138  -21.2789   51.6727 H   0  0
   -4.3731  -20.9419   50.0092 H   0  0
   -3.4967  -22.1203   51.0091 H   0  0
   -5.9507  -22.6345   47.6670 H   0  0
   -5.0298  -23.8332   45.7110 H   0  0
   -3.2318  -25.5233   46.0282 H   0  0
   -2.3641  -25.9917   48.2877 H   0  0
   -0.9587  -25.0868   48.9476 H   0  0
    1.0074  -23.9423   47.9713 H   0  0
    3.4558  -23.5800   48.1854 H   0  0
    3.3503  -24.7058   52.2605 H   0  0
    0.3381  -26.1085   52.0072 H   0  0
   -2.2297  -26.9490   50.0673 H   0  0
   -2.3551  -26.7628   51.8081 H   0  0
   -4.6039  -27.3352   49.8395 H   0  0
   -4.0105  -28.3795   51.1258 H   0  0
   -5.0492  -29.4385   52.2042 H   0  0
   -6.7592  -30.8515   53.3285 H   0  0
  -11.3483  -31.4321   54.6720 H   0  0
  -10.6918  -29.9516   55.9318 H   0  0
   -9.1005  -28.8143   56.1896 H   0  0
   -9.2063  -27.3606   54.0117 H   0  0
   -7.5086  -25.9446   52.8779 H   0  0
   -5.7505  -25.0516   52.9005 H   0  0
   -5.8392  -24.8502   51.1486 H   0  0
   -3.9358  -23.5915   52.0410 H   0  0
   -3.3073  -25.0288   52.8365 H   0  0
   -7.7368  -30.6678   55.9466 H   0  0
   -9.3280  -31.8049   55.6872 H   0  0
  1  2  1  0
  2  3  1  0
  2  4  1  0
  4  5  2  0
  4  9  1  0
  5  6  1  0
  6  7  2  0
  7  8  1  0
  8  9  2  0
  9 10  1  0
 10 11  1  0
 10 21  1  0
 10 36  1  0
 11 12  2  0
 11 13  1  0
 13 14  1  0
 14 15  2  0
 14 19  1  0
 15 16  1  0
 16 17  2  0
 17 18  1  0
 18 19  2  0
 19 20  1  0
 21 22  1  0
 22 23  1  0
 23 24  1  0
 23 35  1  0
 24 25  2  0
 24 34  1  0
 25 26  1  0
 26 27  2  0
 27 28  1  0
 27 33  1  0
 28 29  1  0
 28 32  1  0
 28 37  1  0
 29 30  2  0
 29 31  1  0
 32 37  1  0
 33 34  2  0
 35 36  1  0
  1 38  1  0
  1 39  1  0
  1 40  1  0
  2 41  1  0
  3 42  1  0
  3 43  1  0
  3 44  1  0
  5 45  1  0
  6 46  1  0
  7 47  1  0
  8 48  1  0
 13 49  1  0
 15 50  1  0
 16 51  1  0
 18 52  1  0
 20 53  1  0
 21 54  1  0
 21 55  1  0
 22 56  1  0
 22 57  1  0
 25 58  1  0
 26 59  1  0
 31 60  1  0
 32 61  1  0
 32 62  1  0
 33 63  1  0
 34 64  1  0
 35 65  1  0
 35 66  1  0
 36 67  1  0
 36 68  1  0
 37 69  1  0
 37 70  1  0
M  END
> <Name>
Molecule

> <AbsoluteEnergy>
73.1962

> <Clean Energy>
210.713

> <ConfNumber>
38

> <MOL_NUMBER>
1

> <RelativeEnergy>
9.89287

> <POSE_NUMBER>
16

> <LibDockScore>
126.8747

> <HotSpots>
-3.33,-21.92,50.38,A,47,3
-4.93,-23.52,47.59,A,26,5
3.07,-24.52,50.38,A,43,18

$$$$
Molecule
  SciTegic05072616053D

 70 74  0  0  0  0            999 V2000
    1.6751  -22.6879   49.8333 C   0  0  0  1  0  0
    1.0929  -24.1152   49.8142 C   0  0  0  1  0  0
    1.8487  -25.0468   50.7834 C   0  0  0  1  0  0
    1.0292  -24.6850   48.4133 C   0  0  0  1  0  0
    2.2701  -24.6577   47.7307 C   0  0  0  1  0  0
    2.4062  -25.1134   46.4179 C   0  0  0  1  0  0
    1.2932  -25.6134   45.7465 C   0  0  0  1  0  0
    0.0579  -25.6628   46.3984 C   0  0  0  1  0  0
   -0.1272  -25.2249   47.7384 C   0  0  0  1  0  0
   -1.5766  -25.4029   48.2450 C   0  0  0  1  0  0
   -2.5306  -24.6551   47.2938 C   0  0  0  1  0  0
   -3.2665  -25.2846   46.5663 O   0  0  0  1  0  0
   -2.5552  -23.2672   47.2766 N   0  0  0  1  0  0
   -3.4416  -22.4965   46.5380 C   0  0  0  1  0  0
   -2.9544  -21.4017   45.7937 C   0  0  0  1  0  0
   -3.8457  -20.6196   45.0357 C   0  0  0  1  0  0
   -5.1806  -20.8897   45.0073 N   0  0  0  1  0  0
   -5.6721  -21.9324   45.7302 C   0  0  0  1  0  0
   -4.8375  -22.7533   46.5179 C   0  0  0  1  0  0
   -5.3645  -23.7331   47.2348 O   0  0  0  1  0  0
   -1.9958  -24.8486   49.6571 C   0  0  0  1  0  0
   -1.6650  -25.7448   50.8755 C   0  0  0  1  0  0
   -2.2115  -27.0906   50.6145 N   0  0  0  1  0  0
   -3.3076  -27.6231   51.2832 C   0  0  0  1  0  0
   -4.1314  -26.7755   52.0569 C   0  0  0  1  0  0
   -5.2912  -27.2687   52.6715 C   0  0  0  1  0  0
   -5.6456  -28.6211   52.5286 C   0  0  0  1  0  0
   -6.9348  -29.1248   53.1360 C   0  0  0  1  0  0
   -8.1587  -28.7387   52.3092 C   0  0  0  1  0  0
   -9.0315  -29.5570   52.1207 O   0  0  0  1  0  0
   -8.2409  -27.5022   51.8099 O   0  0  0  1  0  0
   -7.0799  -29.1378   54.6499 C   0  0  0  1  0  0
   -4.8054  -29.4873   51.8061 C   0  0  0  1  0  0
   -3.6416  -28.9932   51.1914 C   0  0  0  1  0  0
   -1.5549  -27.7452   49.4642 C   0  0  0  1  0  0
   -1.9492  -26.9416   48.2126 C   0  0  0  1  0  0
   -6.9282  -30.4402   53.9016 C   0  0  0  1  0  0
    2.7258  -22.7368   49.5474 H   0  0
    1.6019  -22.2958   50.8477 H   0  0
    1.1287  -22.0452   49.1431 H   0  0
    0.0644  -24.0471   50.1688 H   0  0
    1.7741  -24.6359   51.7902 H   0  0
    2.8980  -25.0769   50.4899 H   0  0
    1.4232  -26.0499   50.7559 H   0  0
    3.1474  -24.2682   48.2472 H   0  0
    3.3763  -25.0781   45.9222 H   0  0
    1.3850  -25.9642   44.7186 H   0  0
   -0.8021  -26.0546   45.8552 H   0  0
   -1.8358  -22.7526   47.8788 H   0  0
   -1.8911  -21.1623   45.8056 H   0  0
   -3.4594  -19.7794   44.4587 H   0  0
   -6.7418  -22.1396   45.6999 H   0  0
   -5.0558  -23.5302   48.2177 H   0  0
   -1.5179  -23.8800   49.8035 H   0  0
   -3.0695  -24.6611   49.6505 H   0  0
   -0.5842  -25.8063   51.0027 H   0  0
   -2.1250  -25.3301   51.7725 H   0  0
   -3.8624  -25.7261   52.1775 H   0  0
   -5.9195  -26.6015   53.2616 H   0  0
   -7.3687  -27.3802   51.2381 H   0  0
   -8.1124  -28.9668   54.9545 H   0  0
   -6.1523  -28.8465   55.1427 H   0  0
   -5.0573  -30.5445   51.7226 H   0  0
   -2.9917  -29.6723   50.6396 H   0  0
   -1.9085  -28.7719   49.3695 H   0  0
   -0.4727  -27.7209   49.5922 H   0  0
   -1.4732  -27.3980   47.3447 H   0  0
   -3.0251  -27.0364   48.0655 H   0  0
   -5.9198  -30.8431   53.9957 H   0  0
   -7.8801  -30.9626   53.8060 H   0  0
  1  2  1  0
  2  3  1  0
  2  4  1  0
  4  5  2  0
  4  9  1  0
  5  6  1  0
  6  7  2  0
  7  8  1  0
  8  9  2  0
  9 10  1  0
 10 11  1  0
 10 21  1  0
 10 36  1  0
 11 12  2  0
 11 13  1  0
 13 14  1  0
 14 15  2  0
 14 19  1  0
 15 16  1  0
 16 17  2  0
 17 18  1  0
 18 19  2  0
 19 20  1  0
 21 22  1  0
 22 23  1  0
 23 24  1  0
 23 35  1  0
 24 25  2  0
 24 34  1  0
 25 26  1  0
 26 27  2  0
 27 28  1  0
 27 33  1  0
 28 29  1  0
 28 32  1  0
 28 37  1  0
 29 30  2  0
 29 31  1  0
 32 37  1  0
 33 34  2  0
 35 36  1  0
  1 38  1  0
  1 39  1  0
  1 40  1  0
  2 41  1  0
  3 42  1  0
  3 43  1  0
  3 44  1  0
  5 45  1  0
  6 46  1  0
  7 47  1  0
  8 48  1  0
 13 49  1  0
 15 50  1  0
 16 51  1  0
 18 52  1  0
 20 53  1  0
 21 54  1  0
 21 55  1  0
 22 56  1  0
 22 57  1  0
 25 58  1  0
 26 59  1  0
 31 60  1  0
 32 61  1  0
 32 62  1  0
 33 63  1  0
 34 64  1  0
 35 65  1  0
 35 66  1  0
 36 67  1  0
 36 68  1  0
 37 69  1  0
 37 70  1  0
M  END
> <Name>
Molecule

> <AbsoluteEnergy>
80.3582

> <Clean Energy>
210.713

> <ConfNumber>
85

> <MOL_NUMBER>
1

> <RelativeEnergy>
17.0548

> <POSE_NUMBER>
17

> <LibDockScore>
126.3086

> <HotSpots>
2.67,-23.92,48.98,A,32,5
1.87,-24.92,46.78,A,22,7
-2.53,-21.12,45.98,A,16,15

$$$$
Molecule
  SciTegic05072616053D

 70 74  0  0  0  0            999 V2000
   -5.7869  -24.9823   50.6341 C   0  0  0  1  0  0
   -4.4112  -24.2903   50.7369 C   0  0  0  1  0  0
   -4.4626  -23.1251   51.7466 C   0  0  0  1  0  0
   -3.8878  -23.8512   49.3869 C   0  0  0  1  0  0
   -4.6997  -22.9115   48.7083 C   0  0  0  1  0  0
   -4.3899  -22.4610   47.4218 C   0  0  0  1  0  0
   -3.2592  -22.9573   46.7743 C   0  0  0  1  0  0
   -2.4307  -23.8763   47.4310 C   0  0  0  1  0  0
   -2.6731  -24.3152   48.7659 C   0  0  0  1  0  0
   -1.6208  -25.2546   49.4112 C   0  0  0  1  0  0
   -0.1708  -24.7987   49.0889 C   0  0  0  1  0  0
    0.5099  -25.4379   48.3164 O   0  0  0  1  0  0
    0.3600  -23.6495   49.6723 N   0  0  0  1  0  0
    1.7129  -23.3829   49.8311 C   0  0  0  1  0  0
    2.1852  -22.0622   49.6643 C   0  0  0  1  0  0
    3.5590  -21.7872   49.8060 C   0  0  0  1  0  0
    4.4528  -22.7691   50.1055 N   0  0  0  1  0  0
    4.0137  -24.0476   50.2853 C   0  0  0  1  0  0
    2.6493  -24.3935   50.1672 C   0  0  0  1  0  0
    2.2515  -25.6371   50.3842 O   0  0  0  1  0  0
   -1.8246  -26.7046   48.8394 C   0  0  0  1  0  0
   -2.7774  -27.6364   49.6166 C   0  0  0  1  0  0
   -2.4131  -27.7413   51.0613 N   0  0  0  1  0  0
   -2.9255  -28.7620   51.8741 C   0  0  0  1  0  0
   -3.9921  -29.5904   51.4445 C   0  0  0  1  0  0
   -4.5181  -30.5918   52.2847 C   0  0  0  1  0  0
   -3.9915  -30.7876   53.5763 C   0  0  0  1  0  0
   -4.5891  -31.8284   54.5094 C   0  0  0  1  0  0
   -3.9603  -33.2178   54.4220 C   0  0  0  1  0  0
   -3.2692  -33.6196   55.3304 O   0  0  0  1  0  0
   -4.1986  -33.9791   53.3496 O   0  0  0  1  0  0
   -6.0721  -31.7280   54.8398 C   0  0  0  1  0  0
   -2.9089  -29.9957   53.9987 C   0  0  0  1  0  0
   -2.3850  -28.9956   53.1608 C   0  0  0  1  0  0
   -1.4511  -26.7208   51.5913 C   0  0  0  1  0  0
   -1.6286  -25.3087   50.9845 C   0  0  0  1  0  0
   -5.0480  -31.3851   55.8917 C   0  0  0  1  0  0
   -6.5281  -24.2520   50.3096 H   0  0
   -6.0665  -25.3638   51.6161 H   0  0
   -5.7393  -25.8033   49.9187 H   0  0
   -3.6988  -25.0253   51.1115 H   0  0
   -4.7479  -23.5146   52.7238 H   0  0
   -5.2096  -22.4028   51.4173 H   0  0
   -3.4867  -22.6438   51.8113 H   0  0
   -5.5921  -22.5280   49.2029 H   0  0
   -5.0274  -21.7273   46.9286 H   0  0
   -3.0210  -22.6317   45.7617 H   0  0
   -1.5652  -24.2722   46.8998 H   0  0
   -0.3312  -22.9134   50.0263 H   0  0
    1.4884  -21.2584   49.4266 H   0  0
    3.9145  -20.7654   49.6729 H   0  0
    4.7373  -24.8259   50.5274 H   0  0
    1.7389  -25.9064   49.5083 H   0  0
   -2.1879  -26.6221   47.8150 H   0  0
   -0.8506  -27.1895   48.7747 H   0  0
   -3.7952  -27.2552   49.5338 H   0  0
   -2.7485  -28.6304   49.1702 H   0  0
   -4.4122  -29.4507   50.4484 H   0  0
   -5.3375  -31.2187   51.9330 H   0  0
   -3.8951  -33.3956   52.5311 H   0  0
   -6.5110  -32.7110   55.0103 H   0  0
   -6.5181  -30.8335   54.4049 H   0  0
   -2.4722  -30.1586   54.9840 H   0  0
   -1.5481  -28.3898   53.5083 H   0  0
   -1.5700  -26.6557   52.6728 H   0  0
   -0.4344  -27.0615   51.3957 H   0  0
   -0.8321  -24.6663   51.3601 H   0  0
   -2.5690  -24.8915   51.3447 H   0  0
   -4.9474  -30.3073   56.0197 H   0  0
   -4.9391  -32.1851   56.6240 H   0  0
  1  2  1  0
  2  3  1  0
  2  4  1  0
  4  5  2  0
  4  9  1  0
  5  6  1  0
  6  7  2  0
  7  8  1  0
  8  9  2  0
  9 10  1  0
 10 11  1  0
 10 21  1  0
 10 36  1  0
 11 12  2  0
 11 13  1  0
 13 14  1  0
 14 15  2  0
 14 19  1  0
 15 16  1  0
 16 17  2  0
 17 18  1  0
 18 19  2  0
 19 20  1  0
 21 22  1  0
 22 23  1  0
 23 24  1  0
 23 35  1  0
 24 25  2  0
 24 34  1  0
 25 26  1  0
 26 27  2  0
 27 28  1  0
 27 33  1  0
 28 29  1  0
 28 32  1  0
 28 37  1  0
 29 30  2  0
 29 31  1  0
 32 37  1  0
 33 34  2  0
 35 36  1  0
  1 38  1  0
  1 39  1  0
  1 40  1  0
  2 41  1  0
  3 42  1  0
  3 43  1  0
  3 44  1  0
  5 45  1  0
  6 46  1  0
  7 47  1  0
  8 48  1  0
 13 49  1  0
 15 50  1  0
 16 51  1  0
 18 52  1  0
 20 53  1  0
 21 54  1  0
 21 55  1  0
 22 56  1  0
 22 57  1  0
 25 58  1  0
 26 59  1  0
 31 60  1  0
 32 61  1  0
 32 62  1  0
 33 63  1  0
 34 64  1  0
 35 65  1  0
 35 66  1  0
 36 67  1  0
 36 68  1  0
 37 69  1  0
 37 70  1  0
M  END
> <Name>
Molecule

> <AbsoluteEnergy>
76.1696

> <Clean Energy>
210.713

> <ConfNumber>
55

> <MOL_NUMBER>
1

> <RelativeEnergy>
12.8663

> <POSE_NUMBER>
18

> <LibDockScore>
125.4988

> <HotSpots>
-1.73,-21.72,46.78,A,24,7
4.67,-22.92,49.98,A,40,18
-3.33,-32.52,54.19,P,48,30

$$$$
Molecule
  SciTegic05072616053D

 70 74  0  0  0  0            999 V2000
   -0.4448  -25.9544   48.3180 C   0  0  0  1  0  0
   -0.0331  -24.6157   48.9610 C   0  0  0  1  0  0
   -1.0506  -23.4893   48.7341 C   0  0  0  1  0  0
    0.6023  -24.7418   50.3459 C   0  0  0  1  0  0
    1.9794  -24.3994   50.3767 C   0  0  0  1  0  0
    2.7335  -24.4442   51.5513 C   0  0  0  1  0  0
    2.1263  -24.8385   52.7404 C   0  0  0  1  0  0
    0.7713  -25.1875   52.7483 C   0  0  0  1  0  0
   -0.0353  -25.1615   51.5746 C   0  0  0  1  0  0
   -1.5210  -25.5709   51.7053 C   0  0  0  1  0  0
   -2.4177  -24.3715   51.3386 C   0  0  0  1  0  0
   -2.1318  -23.2764   51.7702 O   0  0  0  1  0  0
   -3.5383  -24.5500   50.5383 N   0  0  0  1  0  0
   -4.6655  -23.7432   50.3990 C   0  0  0  1  0  0
   -5.9184  -24.3988   50.4090 C   0  0  0  1  0  0
   -7.1079  -23.6599   50.3272 C   0  0  0  1  0  0
   -7.0923  -22.3054   50.2272 N   0  0  0  1  0  0
   -5.9011  -21.6476   50.1785 C   0  0  0  1  0  0
   -4.6626  -22.3289   50.2446 C   0  0  0  1  0  0
   -3.5429  -21.6341   50.1444 O   0  0  0  1  0  0
   -1.7783  -26.8902   50.8899 C   0  0  0  1  0  0
   -2.5609  -28.0324   51.5890 C   0  0  0  1  0  0
   -3.6991  -27.5483   52.4222 N   0  0  0  1  0  0
   -4.9745  -28.1124   52.3500 C   0  0  0  1  0  0
   -6.1157  -27.3933   52.7787 C   0  0  0  1  0  0
   -7.3973  -27.9688   52.7208 C   0  0  0  1  0  0
   -7.5720  -29.2769   52.2274 C   0  0  0  1  0  0
   -8.9528  -29.9136   52.1649 C   0  0  0  1  0  0
   -9.6602  -30.1250   53.5185 C   0  0  0  1  0  0
  -10.6456  -30.8331   53.5618 O   0  0  0  1  0  0
   -9.2094  -29.5507   54.6384 O   0  0  0  1  0  0
   -9.8274  -29.6385   50.9476 C   0  0  0  1  0  0
   -6.4464  -29.9950   51.7849 C   0  0  0  1  0  0
   -5.1631  -29.4222   51.8480 C   0  0  0  1  0  0
   -3.3862  -26.4290   53.3555 C   0  0  0  1  0  0
   -1.9445  -25.9022   53.1811 C   0  0  0  1  0  0
   -9.1596  -30.9834   51.1009 C   0  0  0  1  0  0
   -0.5704  -25.7840   47.2488 H   0  0
   -1.4089  -26.2414   48.7379 H   0  0
    0.3015  -26.7276   48.5007 H   0  0
    0.8241  -24.2538   48.3933 H   0  0
   -2.0048  -23.8163   49.1472 H   0  0
   -1.1664  -23.3590   47.6581 H   0  0
   -0.7249  -22.5606   49.2027 H   0  0
    2.4654  -24.0907   49.4512 H   0  0
    3.7890  -24.1726   51.5372 H   0  0
    2.7052  -24.8753   53.6633 H   0  0
    0.3148  -25.4914   53.6903 H   0  0
   -3.5357  -25.4376   49.9408 H   0  0
   -5.9601  -25.4856   50.4808 H   0  0
   -8.0639  -24.1832   50.3442 H   0  0
   -5.9015  -20.5616   50.0856 H   0  0
   -3.0422  -22.0798   49.3362 H   0  0
   -0.8153  -27.2867   50.5683 H   0  0
   -2.3079  -26.6273   49.9742 H   0  0
   -1.8759  -28.5955   52.2229 H   0  0
   -2.9455  -28.7138   50.8301 H   0  0
   -5.9994  -26.3786   53.1593 H   0  0
   -8.2621  -27.3987   53.0602 H   0  0
   -9.1793  -28.5278   54.4031 H   0  0
   -9.3118  -29.0139   50.2181 H   0  0
  -10.8870  -29.6840   51.1992 H   0  0
   -6.5695  -31.0034   51.3899 H   0  0
   -4.3016  -29.9954   51.5053 H   0  0
   -3.5172  -26.7733   54.3814 H   0  0
   -4.0869  -25.6129   53.1791 H   0  0
   -1.8285  -25.0039   53.7875 H   0  0
   -1.2539  -26.6434   53.5833 H   0  0
   -9.8633  -31.7467   51.4329 H   0  0
   -8.2877  -31.0762   50.4534 H   0  0
  1  2  1  0
  2  3  1  0
  2  4  1  0
  4  5  2  0
  4  9  1  0
  5  6  1  0
  6  7  2  0
  7  8  1  0
  8  9  2  0
  9 10  1  0
 10 11  1  0
 10 21  1  0
 10 36  1  0
 11 12  2  0
 11 13  1  0
 13 14  1  0
 14 15  2  0
 14 19  1  0
 15 16  1  0
 16 17  2  0
 17 18  1  0
 18 19  2  0
 19 20  1  0
 21 22  1  0
 22 23  1  0
 23 24  1  0
 23 35  1  0
 24 25  2  0
 24 34  1  0
 25 26  1  0
 26 27  2  0
 27 28  1  0
 27 33  1  0
 28 29  1  0
 28 32  1  0
 28 37  1  0
 29 30  2  0
 29 31  1  0
 32 37  1  0
 33 34  2  0
 35 36  1  0
  1 38  1  0
  1 39  1  0
  1 40  1  0
  2 41  1  0
  3 42  1  0
  3 43  1  0
  3 44  1  0
  5 45  1  0
  6 46  1  0
  7 47  1  0
  8 48  1  0
 13 49  1  0
 15 50  1  0
 16 51  1  0
 18 52  1  0
 20 53  1  0
 21 54  1  0
 21 55  1  0
 22 56  1  0
 22 57  1  0
 25 58  1  0
 26 59  1  0
 31 60  1  0
 32 61  1  0
 32 62  1  0
 33 63  1  0
 34 64  1  0
 35 65  1  0
 35 66  1  0
 36 67  1  0
 36 68  1  0
 37 69  1  0
 37 70  1  0
M  END
> <Name>
Molecule

> <AbsoluteEnergy>
81.2599

> <Clean Energy>
210.713

> <ConfNumber>
94

> <MOL_NUMBER>
1

> <RelativeEnergy>
17.9565

> <POSE_NUMBER>
19

> <LibDockScore>
125.2245

> <HotSpots>
2.67,-23.92,48.98,A,32,6
-7.33,-24.12,50.38,A,44,16
-8.53,-31.32,51.19,A,51,37

$$$$
Molecule
  SciTegic05072616053D

 70 74  0  0  0  0            999 V2000
   -0.9484  -25.4305   46.8974 C   0  0  0  1  0  0
   -1.2870  -24.5619   48.1230 C   0  0  0  1  0  0
   -1.8816  -23.2026   47.7106 C   0  0  0  1  0  0
   -0.1082  -24.3973   49.0554 C   0  0  0  1  0  0
    1.0154  -23.7144   48.5394 C   0  0  0  1  0  0
    2.1628  -23.5125   49.3134 C   0  0  0  1  0  0
    2.2059  -23.9928   50.6242 C   0  0  0  1  0  0
    1.1018  -24.6714   51.1594 C   0  0  0  1  0  0
   -0.0793  -24.8882   50.4014 C   0  0  0  1  0  0
   -1.2702  -25.6287   51.0250 C   0  0  0  1  0  0
   -2.4721  -24.6682   51.1397 C   0  0  0  1  0  0
   -2.3032  -23.6272   51.7340 O   0  0  0  1  0  0
   -3.7109  -24.9924   50.5973 N   0  0  0  1  0  0
   -4.8460  -24.2010   50.4356 C   0  0  0  1  0  0
   -6.0954  -24.8601   50.5110 C   0  0  0  1  0  0
   -7.2924  -24.1315   50.4418 C   0  0  0  1  0  0
   -7.2863  -22.7827   50.2858 N   0  0  0  1  0  0
   -6.1009  -22.1243   50.1590 C   0  0  0  1  0  0
   -4.8569  -22.7965   50.2066 C   0  0  0  1  0  0
   -3.7449  -22.1063   50.0213 O   0  0  0  1  0  0
   -1.0263  -26.0828   52.5015 C   0  0  0  1  0  0
   -2.2554  -26.7726   53.1392 C   0  0  0  1  0  0
   -2.9234  -27.7231   52.1947 N   0  0  0  1  0  0
   -4.2520  -28.1403   52.3485 C   0  0  0  1  0  0
   -5.2647  -27.2384   52.7625 C   0  0  0  1  0  0
   -6.6072  -27.6399   52.8395 C   0  0  0  1  0  0
   -6.9714  -28.9590   52.5241 C   0  0  0  1  0  0
   -8.4212  -29.3800   52.5691 C   0  0  0  1  0  0
   -8.9240  -29.8883   51.2276 C   0  0  0  1  0  0
   -8.5421  -30.9633   50.8249 O   0  0  0  1  0  0
   -9.7731  -29.1371   50.5270 O   0  0  0  1  0  0
   -9.3958  -28.6160   53.4531 C   0  0  0  1  0  0
   -5.9765  -29.8795   52.1569 C   0  0  0  1  0  0
   -4.6330  -29.4778   52.0798 C   0  0  0  1  0  0
   -2.0681  -28.1598   51.0492 C   0  0  0  1  0  0
   -1.5031  -26.9681   50.2323 C   0  0  0  1  0  0
   -8.9762  -30.0136   53.8357 C   0  0  0  1  0  0
   -0.2315  -24.8913   46.2782 H   0  0
   -1.8611  -25.5904   46.3235 H   0  0
   -0.5295  -26.3866   47.2111 H   0  0
   -2.0545  -25.0968   48.6823 H   0  0
   -2.7861  -23.3822   47.1295 H   0  0
   -1.1564  -22.6831   47.0842 H   0  0
   -2.1138  -22.6044   48.5917 H   0  0
    0.9878  -23.3370   47.5172 H   0  0
    3.0191  -22.9830   48.8957 H   0  0
    3.0982  -23.8400   51.2313 H   0  0
    1.1513  -25.0419   52.1833 H   0  0
   -3.8066  -26.0008   50.2525 H   0  0
   -6.1285  -25.9437   50.6239 H   0  0
   -8.2442  -24.6576   50.5146 H   0  0
   -6.1109  -21.0438   50.0161 H   0  0
   -3.2777  -22.5929   49.2167 H   0  0
   -0.7599  -25.2124   53.1011 H   0  0
   -0.1828  -26.7728   52.5248 H   0  0
   -1.9374  -27.3188   54.0273 H   0  0
   -2.9739  -26.0122   53.4451 H   0  0
   -4.9958  -26.2154   53.0255 H   0  0
   -7.3707  -26.9247   53.1455 H   0  0
   -9.2833  -28.2169   50.4010 H   0  0
  -10.3974  -28.5999   53.0234 H   0  0
   -8.8846  -27.8635   54.0536 H   0  0
   -6.2483  -30.9106   51.9307 H   0  0
   -3.8704  -30.2078   51.8085 H   0  0
   -2.6573  -28.7952   50.3880 H   0  0
   -1.2376  -28.7523   51.4330 H   0  0
   -0.5576  -27.2753   49.7853 H   0  0
   -2.1823  -26.7660   49.4041 H   0  0
   -8.2419  -30.0070   54.6412 H   0  0
   -9.7536  -30.7435   53.6096 H   0  0
  1  2  1  0
  2  3  1  0
  2  4  1  0
  4  5  2  0
  4  9  1  0
  5  6  1  0
  6  7  2  0
  7  8  1  0
  8  9  2  0
  9 10  1  0
 10 11  1  0
 10 21  1  0
 10 36  1  0
 11 12  2  0
 11 13  1  0
 13 14  1  0
 14 15  2  0
 14 19  1  0
 15 16  1  0
 16 17  2  0
 17 18  1  0
 18 19  2  0
 19 20  1  0
 21 22  1  0
 22 23  1  0
 23 24  1  0
 23 35  1  0
 24 25  2  0
 24 34  1  0
 25 26  1  0
 26 27  2  0
 27 28  1  0
 27 33  1  0
 28 29  1  0
 28 32  1  0
 28 37  1  0
 29 30  2  0
 29 31  1  0
 32 37  1  0
 33 34  2  0
 35 36  1  0
  1 38  1  0
  1 39  1  0
  1 40  1  0
  2 41  1  0
  3 42  1  0
  3 43  1  0
  3 44  1  0
  5 45  1  0
  6 46  1  0
  7 47  1  0
  8 48  1  0
 13 49  1  0
 15 50  1  0
 16 51  1  0
 18 52  1  0
 20 53  1  0
 21 54  1  0
 21 55  1  0
 22 56  1  0
 22 57  1  0
 25 58  1  0
 26 59  1  0
 31 60  1  0
 32 61  1  0
 32 62  1  0
 33 63  1  0
 34 64  1  0
 35 65  1  0
 35 66  1  0
 36 67  1  0
 36 68  1  0
 37 69  1  0
 37 70  1  0
M  END
> <Name>
Molecule

> <AbsoluteEnergy>
68.848

> <Clean Energy>
210.713

> <ConfNumber>
13

> <MOL_NUMBER>
1

> <RelativeEnergy>
5.54468

> <POSE_NUMBER>
20

> <LibDockScore>
124.2878

> <HotSpots>
2.27,-24.92,52.19,A,58,7
-7.33,-24.12,50.38,A,44,16
-9.53,-30.12,52.78,A,62,37

$$$$
Molecule
  SciTegic05072616053D

 70 74  0  0  0  0            999 V2000
   -0.2716  -26.1161   48.1895 C   0  0  0  1  0  0
   -0.0288  -24.7497   48.8598 C   0  0  0  1  0  0
   -1.1736  -23.7504   48.6444 C   0  0  0  1  0  0
    0.6084  -24.8242   50.2476 C   0  0  0  1  0  0
    1.9785  -24.4538   50.2685 C   0  0  0  1  0  0
    2.7329  -24.4506   51.4437 C   0  0  0  1  0  0
    2.1332  -24.8232   52.6436 C   0  0  0  1  0  0
    0.7853  -25.1986   52.6615 C   0  0  0  1  0  0
   -0.0212  -25.2216   51.4877 C   0  0  0  1  0  0
   -1.4986  -25.6566   51.6301 C   0  0  0  1  0  0
   -2.4184  -24.4636   51.3019 C   0  0  0  1  0  0
   -2.0102  -23.3407   51.5011 O   0  0  0  1  0  0
   -3.6948  -24.6774   50.7988 N   0  0  0  1  0  0
   -4.7123  -23.7603   50.5445 C   0  0  0  1  0  0
   -6.0295  -24.1758   50.8475 C   0  0  0  1  0  0
   -7.1097  -23.2983   50.6726 C   0  0  0  1  0  0
   -6.9260  -22.0375   50.2020 N   0  0  0  1  0  0
   -5.6742  -21.6196   49.8668 C   0  0  0  1  0  0
   -4.5403  -22.4545   50.0065 C   0  0  0  1  0  0
   -3.3604  -22.0031   49.6183 O   0  0  0  1  0  0
   -1.7474  -26.9619   50.7902 C   0  0  0  1  0  0
   -2.5027  -28.1307   51.4753 C   0  0  0  1  0  0
   -3.6362  -27.6821   52.3345 N   0  0  0  1  0  0
   -4.9038  -28.2641   52.2678 C   0  0  0  1  0  0
   -6.0595  -27.5412   52.6487 C   0  0  0  1  0  0
   -7.3334  -28.1341   52.5967 C   0  0  0  1  0  0
   -7.4857  -29.4640   52.1572 C   0  0  0  1  0  0
   -8.8580  -30.1194   52.1019 C   0  0  0  1  0  0
   -9.4926  -30.4721   53.4620 C   0  0  0  1  0  0
  -10.5814  -31.0093   53.4804 O   0  0  0  1  0  0
   -8.8689  -30.2033   54.6135 O   0  0  0  1  0  0
   -9.7972  -29.7478   50.9606 C   0  0  0  1  0  0
   -6.3454  -30.1866   51.7623 C   0  0  0  1  0  0
   -5.0698  -29.5962   51.8196 C   0  0  0  1  0  0
   -3.3270  -26.5782   53.2872 C   0  0  0  1  0  0
   -1.8960  -26.0258   53.1042 C   0  0  0  1  0  0
   -9.1021  -31.0876   50.9518 C   0  0  0  1  0  0
   -0.4102  -25.9421   47.1224 H   0  0
   -1.1965  -26.5252   48.5960 H   0  0
    0.5615  -26.7968   48.3647 H   0  0
    0.7819  -24.2763   48.3060 H   0  0
   -2.0838  -24.1980   49.0435 H   0  0
   -1.2976  -23.6149   47.5700 H   0  0
   -0.9655  -22.7981   49.1323 H   0  0
    2.4586  -24.1616   49.3346 H   0  0
    3.7829  -24.1587   51.4217 H   0  0
    2.7123  -24.8225   53.5670 H   0  0
    0.3345  -25.4849   53.6117 H   0  0
   -3.9318  -25.6962   50.5733 H   0  0
   -6.2067  -25.1849   51.2195 H   0  0
   -8.1166  -23.6349   50.9193 H   0  0
   -5.5413  -20.6098   49.4785 H   0  0
   -3.0341  -22.7188   48.9227 H   0  0
   -0.7831  -27.3365   50.4468 H   0  0
   -2.2938  -26.6877   49.8878 H   0  0
   -1.8004  -28.6966   52.0874 H   0  0
   -2.8877  -28.8016   50.7073 H   0  0
   -5.9605  -26.5099   52.9873 H   0  0
   -8.2097  -27.5605   52.8987 H   0  0
   -8.6767  -29.1723   54.5618 H   0  0
   -9.3288  -29.0467   50.2698 H   0  0
  -10.8419  -29.8381   51.2582 H   0  0
   -6.4509  -31.2123   51.4090 H   0  0
   -4.1967  -30.1730   51.5144 H   0  0
   -3.4382  -26.9462   54.3072 H   0  0
   -4.0423  -25.7693   53.1381 H   0  0
   -1.7849  -25.1390   53.7282 H   0  0
   -1.1887  -26.7648   53.4807 H   0  0
   -9.7764  -31.8928   51.2434 H   0  0
   -8.2627  -31.1012   50.2565 H   0  0
  1  2  1  0
  2  3  1  0
  2  4  1  0
  4  5  2  0
  4  9  1  0
  5  6  1  0
  6  7  2  0
  7  8  1  0
  8  9  2  0
  9 10  1  0
 10 11  1  0
 10 21  1  0
 10 36  1  0
 11 12  2  0
 11 13  1  0
 13 14  1  0
 14 15  2  0
 14 19  1  0
 15 16  1  0
 16 17  2  0
 17 18  1  0
 18 19  2  0
 19 20  1  0
 21 22  1  0
 22 23  1  0
 23 24  1  0
 23 35  1  0
 24 25  2  0
 24 34  1  0
 25 26  1  0
 26 27  2  0
 27 28  1  0
 27 33  1  0
 28 29  1  0
 28 32  1  0
 28 37  1  0
 29 30  2  0
 29 31  1  0
 32 37  1  0
 33 34  2  0
 35 36  1  0
  1 38  1  0
  1 39  1  0
  1 40  1  0
  2 41  1  0
  3 42  1  0
  3 43  1  0
  3 44  1  0
  5 45  1  0
  6 46  1  0
  7 47  1  0
  8 48  1  0
 13 49  1  0
 15 50  1  0
 16 51  1  0
 18 52  1  0
 20 53  1  0
 21 54  1  0
 21 55  1  0
 22 56  1  0
 22 57  1  0
 25 58  1  0
 26 59  1  0
 31 60  1  0
 32 61  1  0
 32 62  1  0
 33 63  1  0
 34 64  1  0
 35 65  1  0
 35 66  1  0
 36 67  1  0
 36 68  1  0
 37 69  1  0
 37 70  1  0
M  END
> <Name>
Molecule

> <AbsoluteEnergy>
81.2599

> <Clean Energy>
210.713

> <ConfNumber>
94

> <MOL_NUMBER>
1

> <RelativeEnergy>
17.9565

> <POSE_NUMBER>
21

> <LibDockScore>
124.1986

> <HotSpots>
0.87,-24.32,52.78,A,63,8
-6.13,-22.12,49.98,A,41,18
-8.53,-31.32,51.19,A,51,37

$$$$
Molecule
  SciTegic05072616053D

 70 74  0  0  0  0            999 V2000
   -0.9439  -25.3563   46.8010 C   0  0  0  1  0  0
   -1.2297  -24.4765   48.0320 C   0  0  0  1  0  0
   -1.8085  -23.1070   47.6310 C   0  0  0  1  0  0
   -0.0216  -24.3322   48.9296 C   0  0  0  1  0  0
    1.0963  -23.6643   48.3825 C   0  0  0  1  0  0
    2.2689  -23.4817   49.1227 C   0  0  0  1  0  0
    2.3436  -23.9668   50.4304 C   0  0  0  1  0  0
    1.2459  -24.6308   50.9961 C   0  0  0  1  0  0
    0.0398  -24.8278   50.2728 C   0  0  0  1  0  0
   -1.1429  -25.5527   50.9293 C   0  0  0  1  0  0
   -2.3334  -24.5805   51.0637 C   0  0  0  1  0  0
   -2.1341  -23.5233   51.6187 O   0  0  0  1  0  0
   -3.5953  -24.9120   50.5823 N   0  0  0  1  0  0
   -4.7283  -24.1151   50.4330 C   0  0  0  1  0  0
   -5.9795  -24.7714   50.5011 C   0  0  0  1  0  0
   -7.1743  -24.0384   50.4435 C   0  0  0  1  0  0
   -7.1644  -22.6876   50.3058 N   0  0  0  1  0  0
   -5.9772  -22.0310   50.1864 C   0  0  0  1  0  0
   -4.7352  -22.7076   50.2231 C   0  0  0  1  0  0
   -3.6213  -22.0183   50.0457 O   0  0  0  1  0  0
   -0.8693  -25.9973   52.4035 C   0  0  0  1  0  0
   -2.0896  -26.6711   53.0745 C   0  0  0  1  0  0
   -2.7873  -27.6230   52.1532 N   0  0  0  1  0  0
   -4.1156  -28.0269   52.3406 C   0  0  0  1  0  0
   -5.1100  -27.1135   52.7734 C   0  0  0  1  0  0
   -6.4539  -27.5021   52.8842 C   0  0  0  1  0  0
   -6.8375  -28.8195   52.5847 C   0  0  0  1  0  0
   -8.2896  -29.2268   52.6662 C   0  0  0  1  0  0
   -8.7906  -29.8648   51.3807 C   0  0  0  1  0  0
   -8.5617  -31.0352   51.1765 O   0  0  0  1  0  0
   -9.4695  -29.1195   50.5092 O   0  0  0  1  0  0
   -9.2632  -28.3731   53.4653 C   0  0  0  1  0  0
   -5.8601  -29.7511   52.1993 C   0  0  0  1  0  0
   -4.5152  -29.3623   52.0883 C   0  0  0  1  0  0
   -1.9623  -28.0762   50.9920 C   0  0  0  1  0  0
   -1.4056  -26.8961   50.1529 C   0  0  0  1  0  0
   -8.8522  -29.7272   53.9880 C   0  0  0  1  0  0
   -0.2344  -24.8340   46.1592 H   0  0
   -1.8758  -25.4999   46.2541 H   0  0
   -0.5354  -26.3195   47.1067 H   0  0
   -1.9914  -24.9938   48.6153 H   0  0
   -2.7327  -23.2705   47.0768 H   0  0
   -1.0913  -22.6046   46.9819 H   0  0
   -2.0032  -22.5009   48.5158 H   0  0
    1.0441  -23.2834   47.3626 H   0  0
    3.1202  -22.9634   48.6813 H   0  0
    3.2556  -23.8291   51.0113 H   0  0
    1.3202  -25.0053   52.0170 H   0  0
   -3.7138  -25.9320   50.2815 H   0  0
   -6.0157  -25.8564   50.5992 H   0  0
   -8.1276  -24.5626   50.5105 H   0  0
   -5.9841  -20.9486   50.0583 H   0  0
   -3.1566  -22.4954   49.2339 H   0  0
   -0.5817  -25.1246   52.9898 H   0  0
   -0.0316  -26.6946   52.4132 H   0  0
   -1.7562  -27.2131   53.9595 H   0  0
   -2.7943  -25.9019   53.3906 H   0  0
   -4.8256  -26.0916   53.0244 H   0  0
   -7.2034  -26.7782   53.2041 H   0  0
   -8.8340  -28.3141   50.2857 H   0  0
  -10.2632  -28.3954   53.0322 H   0  0
   -8.7501  -27.5666   53.9891 H   0  0
   -6.1466  -30.7808   51.9853 H   0  0
   -3.7659  -30.1008   51.8031 H   0  0
   -2.5720  -28.7114   50.3495 H   0  0
   -1.1285  -28.6732   51.3614 H   0  0
   -0.4733  -27.2152   49.6871 H   0  0
   -2.1017  -26.6944   49.3388 H   0  0
   -8.1205  -29.6433   54.7916 H   0  0
   -9.6326  -30.4723   53.8334 H   0  0
  1  2  1  0
  2  3  1  0
  2  4  1  0
  4  5  2  0
  4  9  1  0
  5  6  1  0
  6  7  2  0
  7  8  1  0
  8  9  2  0
  9 10  1  0
 10 11  1  0
 10 21  1  0
 10 36  1  0
 11 12  2  0
 11 13  1  0
 13 14  1  0
 14 15  2  0
 14 19  1  0
 15 16  1  0
 16 17  2  0
 17 18  1  0
 18 19  2  0
 19 20  1  0
 21 22  1  0
 22 23  1  0
 23 24  1  0
 23 35  1  0
 24 25  2  0
 24 34  1  0
 25 26  1  0
 26 27  2  0
 27 28  1  0
 27 33  1  0
 28 29  1  0
 28 32  1  0
 28 37  1  0
 29 30  2  0
 29 31  1  0
 32 37  1  0
 33 34  2  0
 35 36  1  0
  1 38  1  0
  1 39  1  0
  1 40  1  0
  2 41  1  0
  3 42  1  0
  3 43  1  0
  3 44  1  0
  5 45  1  0
  6 46  1  0
  7 47  1  0
  8 48  1  0
 13 49  1  0
 15 50  1  0
 16 51  1  0
 18 52  1  0
 20 53  1  0
 21 54  1  0
 21 55  1  0
 22 56  1  0
 22 57  1  0
 25 58  1  0
 26 59  1  0
 31 60  1  0
 32 61  1  0
 32 62  1  0
 33 63  1  0
 34 64  1  0
 35 65  1  0
 35 66  1  0
 36 67  1  0
 36 68  1  0
 37 69  1  0
 37 70  1  0
M  END
> <Name>
Molecule

> <AbsoluteEnergy>
68.848

> <Clean Energy>
210.713

> <ConfNumber>
13

> <MOL_NUMBER>
1

> <RelativeEnergy>
5.54468

> <POSE_NUMBER>
22

> <LibDockScore>
124.0651

> <HotSpots>
1.27,-23.52,47.59,A,27,5
-6.13,-22.12,49.98,A,41,18
-8.73,-28.12,54.38,A,70,32

$$$$
Molecule
  SciTegic05072616053D

 70 74  0  0  0  0            999 V2000
   -2.0290  -22.6613   47.7269 C   0  0  0  1  0  0
   -1.2928  -23.9719   48.0688 C   0  0  0  1  0  0
   -1.0470  -24.8213   46.8112 C   0  0  0  1  0  0
   -0.0121  -23.7152   48.8315 C   0  0  0  1  0  0
    0.9603  -22.9283   48.1754 C   0  0  0  1  0  0
    2.1789  -22.6211   48.7865 C   0  0  0  1  0  0
    2.4485  -23.0968   50.0702 C   0  0  0  1  0  0
    1.5020  -23.8777   50.7395 C   0  0  0  1  0  0
    0.2534  -24.2136   50.1488 C   0  0  0  1  0  0
   -0.7562  -25.0833   50.9207 C   0  0  0  1  0  0
   -2.0201  -24.2530   51.2199 C   0  0  0  1  0  0
   -1.8828  -23.0985   51.5712 O   0  0  0  1  0  0
   -3.2996  -24.7794   51.0909 N   0  0  0  1  0  0
   -4.4580  -24.0622   50.8278 C   0  0  0  1  0  0
   -4.4157  -22.7525   50.2999 C   0  0  0  1  0  0
   -5.6130  -22.0651   50.0287 C   0  0  0  1  0  0
   -6.8263  -22.6352   50.2702 N   0  0  0  1  0  0
   -6.8888  -23.8969   50.7820 C   0  0  0  1  0  0
   -5.7277  -24.6415   51.0771 C   0  0  0  1  0  0
   -5.8266  -25.8622   51.5859 O   0  0  0  1  0  0
   -0.9463  -26.4006   50.1064 C   0  0  0  1  0  0
   -1.6676  -27.5921   50.7862 C   0  0  0  1  0  0
   -1.8261  -27.5359   52.2756 N   0  0  0  1  0  0
   -2.6501  -28.4623   52.8984 C   0  0  0  1  0  0
   -2.5476  -28.7286   54.2816 C   0  0  0  1  0  0
   -3.3527  -29.7192   54.8809 C   0  0  0  1  0  0
   -4.2773  -30.4461   54.1053 C   0  0  0  1  0  0
   -5.0953  -31.5632   54.7239 C   0  0  0  1  0  0
   -4.3386  -32.8957   54.8634 C   0  0  0  1  0  0
   -4.6520  -33.6520   55.7574 O   0  0  0  1  0  0
   -3.3500  -33.2238   54.0105 O   0  0  0  1  0  0
   -6.1217  -31.1966   55.7853 C   0  0  0  1  0  0
   -4.4222  -30.1409   52.7378 C   0  0  0  1  0  0
   -3.6131  -29.1617   52.1382 C   0  0  0  1  0  0
   -1.1561  -26.4844   53.0921 C   0  0  0  1  0  0
   -0.2073  -25.5784   52.2929 C   0  0  0  1  0  0
   -6.5824  -31.6223   54.4134 C   0  0  0  1  0  0
   -2.9832  -22.9083   47.2615 H   0  0
   -1.4242  -22.0962   47.0177 H   0  0
   -2.1945  -22.0728   48.6293 H   0  0
   -1.9436  -24.5468   48.7276 H   0  0
   -0.4496  -24.2400   46.1089 H   0  0
   -2.0086  -25.0521   46.3527 H   0  0
   -0.5263  -25.7428   47.0716 H   0  0
    0.7561  -22.5532   47.1725 H   0  0
    2.9158  -22.0124   48.2625 H   0  0
    3.3974  -22.8594   50.5512 H   0  0
    1.7276  -24.2393   51.7427 H   0  0
   -3.4013  -25.8384   51.2053 H   0  0
   -3.4560  -22.2748   50.1028 H   0  0
   -5.5688  -21.0567   49.6173 H   0  0
   -7.8652  -24.3439   50.9688 H   0  0
   -5.2748  -25.8210   52.4783 H   0  0
   -1.4856  -26.1578   49.1908 H   0  0
    0.0358  -26.7429   49.7802 H   0  0
   -1.1316  -28.5075   50.5357 H   0  0
   -2.6580  -27.6926   50.3422 H   0  0
   -1.8411  -28.1643   54.8903 H   0  0
   -3.2594  -29.9231   55.9476 H   0  0
   -2.6780  -32.4196   54.0749 H   0  0
   -6.1930  -30.1169   55.9168 H   0  0
   -6.2427  -31.9957   56.5166 H   0  0
   -5.1668  -30.6679   52.1412 H   0  0
   -3.7295  -28.9398   51.0774 H   0  0
   -0.5917  -26.9661   53.8905 H   0  0
   -1.9205  -25.8651   53.5614 H   0  0
    0.0395  -24.7103   52.9041 H   0  0
    0.7243  -26.1176   52.1212 H   0  0
   -6.9507  -32.6482   54.4129 H   0  0
   -6.8993  -30.7698   53.8126 H   0  0
  1  2  1  0
  2  3  1  0
  2  4  1  0
  4  5  2  0
  4  9  1  0
  5  6  1  0
  6  7  2  0
  7  8  1  0
  8  9  2  0
  9 10  1  0
 10 11  1  0
 10 21  1  0
 10 36  1  0
 11 12  2  0
 11 13  1  0
 13 14  1  0
 14 15  2  0
 14 19  1  0
 15 16  1  0
 16 17  2  0
 17 18  1  0
 18 19  2  0
 19 20  1  0
 21 22  1  0
 22 23  1  0
 23 24  1  0
 23 35  1  0
 24 25  2  0
 24 34  1  0
 25 26  1  0
 26 27  2  0
 27 28  1  0
 27 33  1  0
 28 29  1  0
 28 32  1  0
 28 37  1  0
 29 30  2  0
 29 31  1  0
 32 37  1  0
 33 34  2  0
 35 36  1  0
  1 38  1  0
  1 39  1  0
  1 40  1  0
  2 41  1  0
  3 42  1  0
  3 43  1  0
  3 44  1  0
  5 45  1  0
  6 46  1  0
  7 47  1  0
  8 48  1  0
 13 49  1  0
 15 50  1  0
 16 51  1  0
 18 52  1  0
 20 53  1  0
 21 54  1  0
 21 55  1  0
 22 56  1  0
 22 57  1  0
 25 58  1  0
 26 59  1  0
 31 60  1  0
 32 61  1  0
 32 62  1  0
 33 63  1  0
 34 64  1  0
 35 65  1  0
 35 66  1  0
 36 67  1  0
 36 68  1  0
 37 69  1  0
 37 70  1  0
M  END
> <Name>
Molecule

> <AbsoluteEnergy>
73.7847

> <Clean Energy>
210.713

> <ConfNumber>
41

> <MOL_NUMBER>
1

> <RelativeEnergy>
10.4813

> <POSE_NUMBER>
23

> <LibDockScore>
123.91

> <HotSpots>
-0.93,-23.32,46.98,A,25,1
1.67,-24.32,50.98,A,50,8
-5.53,-22.92,48.98,A,33,16

$$$$
Molecule
  SciTegic05072616053D

 70 74  0  0  0  0            999 V2000
   -3.9724  -25.2036   46.2481 C   0  0  0  1  0  0
   -3.0281  -24.7561   47.3791 C   0  0  0  1  0  0
   -2.0795  -23.6368   46.9026 C   0  0  0  1  0  0
   -3.7931  -24.3658   48.6233 C   0  0  0  1  0  0
   -4.7060  -23.2950   48.4810 C   0  0  0  1  0  0
   -5.4659  -22.8356   49.5606 C   0  0  0  1  0  0
   -5.3288  -23.4433   50.8081 C   0  0  0  1  0  0
   -4.4328  -24.5043   50.9724 C   0  0  0  1  0  0
   -3.6485  -25.0100   49.8976 C   0  0  0  1  0  0
   -2.7097  -26.2127   50.1249 C   0  0  0  1  0  0
   -1.2766  -25.9459   49.6538 C   0  0  0  1  0  0
   -0.7567  -26.7088   48.8703 O   0  0  0  1  0  0
   -0.5866  -24.8491   50.1434 N   0  0  0  1  0  0
    0.6977  -24.4560   49.7992 C   0  0  0  1  0  0
    1.5274  -23.9781   50.8366 C   0  0  0  1  0  0
    2.8539  -23.6020   50.5621 C   0  0  0  1  0  0
    3.3669  -23.6882   49.3060 N   0  0  0  1  0  0
    2.5800  -24.1253   48.2852 C   0  0  0  1  0  0
    1.2361  -24.4984   48.4821 C   0  0  0  1  0  0
    0.5436  -24.8513   47.4125 O   0  0  0  1  0  0
   -3.3320  -27.4612   49.3686 C   0  0  0  1  0  0
   -2.8513  -28.8550   49.8345 C   0  0  0  1  0  0
   -2.9733  -28.8409   51.3012 N   0  0  0  1  0  0
   -4.0815  -29.3001   52.0058 C   0  0  0  1  0  0
   -5.1861  -29.8486   51.3148 C   0  0  0  1  0  0
   -6.4253  -29.9779   51.9550 C   0  0  0  1  0  0
   -6.5588  -29.5806   53.2955 C   0  0  0  1  0  0
   -7.9286  -29.4257   53.9008 C   0  0  0  1  0  0
   -8.3922  -27.9653   53.8279 C   0  0  0  1  0  0
   -9.2626  -27.5816   54.5755 O   0  0  0  1  0  0
   -7.8245  -27.1322   52.9428 O   0  0  0  1  0  0
   -8.3163  -30.2825   55.0953 C   0  0  0  1  0  0
   -5.4142  -29.2724   54.0496 C   0  0  0  1  0  0
   -4.1733  -29.1478   53.4084 C   0  0  0  1  0  0
   -1.9476  -27.9742   51.9115 C   0  0  0  1  0  0
   -2.4952  -26.5586   51.6604 C   0  0  0  1  0  0
   -8.9554  -30.5357   53.7500 C   0  0  0  1  0  0
   -3.3725  -25.5652   45.4130 H   0  0
   -4.5579  -24.3448   45.9198 H   0  0
   -4.6354  -25.9939   46.6003 H   0  0
   -2.4070  -25.6097   47.6505 H   0  0
   -2.6775  -22.7883   46.5700 H   0  0
   -1.4921  -24.0088   46.0632 H   0  0
   -1.4184  -23.3315   47.7137 H   0  0
   -4.8196  -22.8173   47.5078 H   0  0
   -6.1616  -22.0071   49.4280 H   0  0
   -5.9193  -23.0918   51.6542 H   0  0
   -4.3315  -24.9598   51.9575 H   0  0
   -1.0976  -24.2424   50.8615 H   0  0
    1.1389  -23.9006   51.8521 H   0  0
    3.4835  -23.2341   51.3723 H   0  0
    3.0035  -24.1887   47.2828 H   0  0
   -0.2796  -24.2000   47.4377 H   0  0
   -3.1195  -27.3631   48.3040 H   0  0
   -4.4166  -27.4208   49.4688 H   0  0
   -1.8104  -29.0053   49.5482 H   0  0
   -3.4929  -29.6294   49.4141 H   0  0
   -5.0731  -30.1721   50.2801 H   0  0
   -7.2810  -30.3845   51.4160 H   0  0
   -7.9586  -27.5986   52.0117 H   0  0
   -8.9906  -29.7513   55.7670 H   0  0
   -7.5492  -31.0231   55.3218 H   0  0
   -5.4903  -29.1308   55.1277 H   0  0
   -3.2782  -28.9332   53.9922 H   0  0
   -1.8778  -28.1657   52.9823 H   0  0
   -0.9912  -28.1023   51.4046 H   0  0
   -1.8045  -25.8341   52.0918 H   0  0
   -3.4461  -26.4532   52.1827 H   0  0
   -8.5293  -31.4118   53.2612 H   0  0
   -9.9696  -30.1389   53.7057 H   0  0
  1  2  1  0
  2  3  1  0
  2  4  1  0
  4  5  2  0
  4  9  1  0
  5  6  1  0
  6  7  2  0
  7  8  1  0
  8  9  2  0
  9 10  1  0
 10 11  1  0
 10 21  1  0
 10 36  1  0
 11 12  2  0
 11 13  1  0
 13 14  1  0
 14 15  2  0
 14 19  1  0
 15 16  1  0
 16 17  2  0
 17 18  1  0
 18 19  2  0
 19 20  1  0
 21 22  1  0
 22 23  1  0
 23 24  1  0
 23 35  1  0
 24 25  2  0
 24 34  1  0
 25 26  1  0
 26 27  2  0
 27 28  1  0
 27 33  1  0
 28 29  1  0
 28 32  1  0
 28 37  1  0
 29 30  2  0
 29 31  1  0
 32 37  1  0
 33 34  2  0
 35 36  1  0
  1 38  1  0
  1 39  1  0
  1 40  1  0
  2 41  1  0
  3 42  1  0
  3 43  1  0
  3 44  1  0
  5 45  1  0
  6 46  1  0
  7 47  1  0
  8 48  1  0
 13 49  1  0
 15 50  1  0
 16 51  1  0
 18 52  1  0
 20 53  1  0
 21 54  1  0
 21 55  1  0
 22 56  1  0
 22 57  1  0
 25 58  1  0
 26 59  1  0
 31 60  1  0
 32 61  1  0
 32 62  1  0
 33 63  1  0
 34 64  1  0
 35 65  1  0
 35 66  1  0
 36 67  1  0
 36 68  1  0
 37 69  1  0
 37 70  1  0
M  END
> <Name>
Molecule

> <AbsoluteEnergy>
83.0823

> <Clean Energy>
210.713

> <ConfNumber>
106

> <MOL_NUMBER>
1

> <RelativeEnergy>
19.779

> <POSE_NUMBER>
24

> <LibDockScore>
122.9681

> <HotSpots>
-4.73,-22.32,50.38,A,46,6
3.07,-24.52,50.38,A,43,16
-9.53,-30.12,52.78,A,62,37

$$$$
Molecule
  SciTegic05072616053D

 70 74  0  0  0  0            999 V2000
    0.2809  -23.4058   53.7806 C   0  0  0  1  0  0
   -0.2589  -24.3204   52.6546 C   0  0  0  1  0  0
   -0.5638  -25.7150   53.2409 C   0  0  0  1  0  0
    0.6157  -24.4159   51.4166 C   0  0  0  1  0  0
    2.0065  -24.2786   51.6348 C   0  0  0  1  0  0
    2.9246  -24.2805   50.5825 C   0  0  0  1  0  0
    2.4756  -24.4432   49.2741 C   0  0  0  1  0  0
    1.1113  -24.6322   49.0274 C   0  0  0  1  0  0
    0.1439  -24.6439   50.0707 C   0  0  0  1  0  0
   -1.3027  -24.9381   49.6187 C   0  0  0  1  0  0
   -1.5996  -24.3478   48.2297 C   0  0  0  1  0  0
   -1.7924  -25.0987   47.2982 O   0  0  0  1  0  0
   -1.6619  -22.9751   48.0337 N   0  0  0  1  0  0
   -2.4600  -22.3630   47.0780 C   0  0  0  1  0  0
   -2.0041  -21.2078   46.4035 C   0  0  0  1  0  0
   -2.8259  -20.5967   45.4376 C   0  0  0  1  0  0
   -4.0595  -21.0900   45.1364 N   0  0  0  1  0  0
   -4.5206  -22.1973   45.7828 C   0  0  0  1  0  0
   -3.7534  -22.8568   46.7646 C   0  0  0  1  0  0
   -4.2492  -23.9099   47.3936 O   0  0  0  1  0  0
   -2.4644  -24.3851   50.4951 C   0  0  0  1  0  0
   -3.8578  -24.8251   50.0161 C   0  0  0  1  0  0
   -3.9381  -26.3092   50.0616 N   0  0  0  1  0  0
   -4.8903  -26.9503   50.8413 C   0  0  0  1  0  0
   -4.8485  -28.3478   51.0484 C   0  0  0  1  0  0
   -5.7108  -28.9530   51.9776 C   0  0  0  1  0  0
   -6.6200  -28.1679   52.7081 C   0  0  0  1  0  0
   -7.3962  -28.7753   53.8535 C   0  0  0  1  0  0
   -6.4525  -29.2488   54.9639 C   0  0  0  1  0  0
   -6.9092  -29.6524   56.0103 O   0  0  0  1  0  0
   -5.1309  -29.2024   54.7429 O   0  0  0  1  0  0
   -8.7552  -28.2057   54.2335 C   0  0  0  1  0  0
   -6.7662  -26.8033   52.4032 C   0  0  0  1  0  0
   -5.9068  -26.1985   51.4736 C   0  0  0  1  0  0
   -2.8961  -27.0249   49.2761 C   0  0  0  1  0  0
   -1.4742  -26.4971   49.5973 C   0  0  0  1  0  0
   -8.6688  -29.5589   53.5670 C   0  0  0  1  0  0
    1.1946  -23.8323   54.1944 H   0  0
   -0.4667  -23.3119   54.5682 H   0  0
    0.4978  -22.4192   53.3711 H   0  0
   -1.1709  -23.8492   52.2880 H   0  0
   -1.3137  -25.6275   54.0270 H   0  0
    0.3476  -26.1478   53.6533 H   0  0
   -0.9444  -26.3629   52.4513 H   0  0
    2.3728  -24.1679   52.6554 H   0  0
    3.9884  -24.1551   50.7843 H   0  0
    3.1840  -24.4234   48.4459 H   0  0
    0.7778  -24.7755   47.9996 H   0  0
   -1.0574  -22.3507   48.6579 H   0  0
   -1.0221  -20.7925   46.6298 H   0  0
   -2.4668  -19.7080   44.9186 H   0  0
   -5.5091  -22.5835   45.5341 H   0  0
   -4.2053  -23.6519   48.4105 H   0  0
   -2.4202  -23.2960   50.4955 H   0  0
   -2.3229  -24.7213   51.5222 H   0  0
   -4.0177  -24.4832   48.9935 H   0  0
   -4.6193  -24.3990   50.6693 H   0  0
   -4.1438  -28.9589   50.4844 H   0  0
   -5.6750  -30.0314   52.1323 H   0  0
   -4.9250  -28.2019   54.4999 H   0  0
   -9.0748  -27.4329   53.5344 H   0  0
   -8.9409  -28.2957   55.3038 H   0  0
   -7.5460  -26.2161   52.8882 H   0  0
   -6.0238  -25.1409   51.2372 H   0  0
   -2.9430  -28.0893   49.5064 H   0  0
   -3.0948  -26.8923   48.2126 H   0  0
   -0.7799  -26.9113   48.8662 H   0  0
   -1.1713  -26.8926   50.5668 H   0  0
   -8.8094  -30.3691   54.2824 H   0  0
   -8.9416  -29.5062   52.5130 H   0  0
  1  2  1  0
  2  3  1  0
  2  4  1  0
  4  5  2  0
  4  9  1  0
  5  6  1  0
  6  7  2  0
  7  8  1  0
  8  9  2  0
  9 10  1  0
 10 11  1  0
 10 21  1  0
 10 36  1  0
 11 12  2  0
 11 13  1  0
 13 14  1  0
 14 15  2  0
 14 19  1  0
 15 16  1  0
 16 17  2  0
 17 18  1  0
 18 19  2  0
 19 20  1  0
 21 22  1  0
 22 23  1  0
 23 24  1  0
 23 35  1  0
 24 25  2  0
 24 34  1  0
 25 26  1  0
 26 27  2  0
 27 28  1  0
 27 33  1  0
 28 29  1  0
 28 32  1  0
 28 37  1  0
 29 30  2  0
 29 31  1  0
 32 37  1  0
 33 34  2  0
 35 36  1  0
  1 38  1  0
  1 39  1  0
  1 40  1  0
  2 41  1  0
  3 42  1  0
  3 43  1  0
  3 44  1  0
  5 45  1  0
  6 46  1  0
  7 47  1  0
  8 48  1  0
 13 49  1  0
 15 50  1  0
 16 51  1  0
 18 52  1  0
 20 53  1  0
 21 54  1  0
 21 55  1  0
 22 56  1  0
 22 57  1  0
 25 58  1  0
 26 59  1  0
 31 60  1  0
 32 61  1  0
 32 62  1  0
 33 63  1  0
 34 64  1  0
 35 65  1  0
 35 66  1  0
 36 67  1  0
 36 68  1  0
 37 69  1  0
 37 70  1  0
M  END
> <Name>
Molecule

> <AbsoluteEnergy>
78.2694

> <Clean Energy>
210.713

> <ConfNumber>
72

> <MOL_NUMBER>
1

> <RelativeEnergy>
14.966

> <POSE_NUMBER>
25

> <LibDockScore>
122.7642

> <HotSpots>
0.47,-23.32,53.78,A,67,1
-0.33,-25.52,53.19,A,64,3
-3.73,-20.12,45.19,P,20,17

$$$$
Molecule
  SciTegic05072616053D

 70 74  0  0  0  0            999 V2000
   -0.4628  -25.1087   46.7463 C   0  0  0  1  0  0
   -0.7849  -24.2427   47.9773 C   0  0  0  1  0  0
   -1.3231  -22.8639   47.5318 C   0  0  0  1  0  0
    0.4059  -24.1213   48.9035 C   0  0  0  1  0  0
    1.5753  -23.5573   48.3460 C   0  0  0  1  0  0
    2.7236  -23.3457   49.1130 C   0  0  0  1  0  0
    2.7265  -23.7055   50.4605 C   0  0  0  1  0  0
    1.5866  -24.2908   51.0339 C   0  0  0  1  0  0
    0.4058  -24.5387   50.2785 C   0  0  0  1  0  0
   -0.8075  -25.2274   50.9407 C   0  0  0  1  0  0
   -1.9934  -24.2450   50.9691 C   0  0  0  1  0  0
   -1.8299  -23.1497   51.4663 O   0  0  0  1  0  0
   -3.2227  -24.5953   50.4350 N   0  0  0  1  0  0
   -4.3666  -23.8154   50.3383 C   0  0  0  1  0  0
   -5.6015  -24.4759   50.5294 C   0  0  0  1  0  0
   -6.8013  -23.7467   50.5130 C   0  0  0  1  0  0
   -6.8130  -22.4044   50.2924 N   0  0  0  1  0  0
   -5.6383  -21.7515   50.0656 C   0  0  0  1  0  0
   -4.3961  -22.4177   50.0550 C   0  0  0  1  0  0
   -3.3298  -21.6974   49.7561 O   0  0  0  1  0  0
   -1.0498  -26.5896   50.2082 C   0  0  0  1  0  0
   -1.9405  -27.6739   50.8722 C   0  0  0  1  0  0
   -2.3087  -27.4771   52.3078 N   0  0  0  1  0  0
   -3.2598  -28.3149   52.8772 C   0  0  0  1  0  0
   -3.2083  -28.6711   54.2430 C   0  0  0  1  0  0
   -4.1558  -29.5623   54.7846 C   0  0  0  1  0  0
   -5.1683  -30.1128   53.9732 C   0  0  0  1  0  0
   -6.1564  -31.1122   54.5698 C   0  0  0  1  0  0
   -5.5308  -32.4400   55.0247 C   0  0  0  1  0  0
   -4.7979  -33.0374   54.2684 O   0  0  0  1  0  0
   -5.8014  -32.9247   56.2467 O   0  0  0  1  0  0
   -7.5879  -31.1652   54.0497 C   0  0  0  1  0  0
   -5.2402  -29.7261   52.6163 C   0  0  0  1  0  0
   -4.3002  -28.8300   52.0773 C   0  0  0  1  0  0
   -1.7012  -26.3858   53.1157 C   0  0  0  1  0  0
   -0.5411  -25.6530   52.4163 C   0  0  0  1  0  0
   -7.3035  -30.5586   55.4017 C   0  0  0  1  0  0
    0.2888  -24.6042   46.1391 H   0  0
   -1.3692  -25.2457   46.1566 H   0  0
   -0.0839  -26.0793   47.0664 H   0  0
   -1.5676  -24.7375   48.5524 H   0  0
   -2.2277  -23.0056   46.9405 H   0  0
   -0.5697  -22.3640   46.9230 H   0  0
   -1.5493  -22.2553   48.4073 H   0  0
    1.5816  -23.2805   47.2917 H   0  0
    3.6112  -22.9025   48.6615 H   0  0
    3.6143  -23.5322   51.0687 H   0  0
    1.6063  -24.5636   52.0890 H   0  0
   -3.2998  -25.5904   50.0493 H   0  0
   -5.6225  -25.5538   50.6899 H   0  0
   -7.7440  -24.2676   50.6807 H   0  0
   -5.6602  -20.6766   49.8861 H   0  0
   -2.9179  -22.2154   48.9409 H   0  0
   -1.4677  -26.3714   49.2254 H   0  0
   -0.0776  -27.0376   50.0026 H   0  0
   -1.4369  -28.6362   50.7803 H   0  0
   -2.8609  -27.7622   50.2950 H   0  0
   -2.4304  -28.2538   54.8823 H   0  0
   -4.1053  -29.8284   55.8404 H   0  0
   -6.8488  -32.9907   56.2798 H   0  0
   -8.0083  -32.1670   54.1382 H   0  0
   -7.7664  -30.3999   53.2944 H   0  0
   -6.0312  -30.1258   51.9818 H   0  0
   -4.3766  -28.5310   51.0319 H   0  0
   -1.3367  -26.8046   54.0537 H   0  0
   -2.4762  -25.6604   53.3631 H   0  0
   -0.2938  -24.7639   52.9963 H   0  0
    0.3386  -26.2963   52.4391 H   0  0
   -7.3327  -29.4695   55.3684 H   0  0
   -7.5729  -31.2363   56.2118 H   0  0
  1  2  1  0
  2  3  1  0
  2  4  1  0
  4  5  2  0
  4  9  1  0
  5  6  1  0
  6  7  2  0
  7  8  1  0
  8  9  2  0
  9 10  1  0
 10 11  1  0
 10 21  1  0
 10 36  1  0
 11 12  2  0
 11 13  1  0
 13 14  1  0
 14 15  2  0
 14 19  1  0
 15 16  1  0
 16 17  2  0
 17 18  1  0
 18 19  2  0
 19 20  1  0
 21 22  1  0
 22 23  1  0
 23 24  1  0
 23 35  1  0
 24 25  2  0
 24 34  1  0
 25 26  1  0
 26 27  2  0
 27 28  1  0
 27 33  1  0
 28 29  1  0
 28 32  1  0
 28 37  1  0
 29 30  2  0
 29 31  1  0
 32 37  1  0
 33 34  2  0
 35 36  1  0
  1 38  1  0
  1 39  1  0
  1 40  1  0
  2 41  1  0
  3 42  1  0
  3 43  1  0
  3 44  1  0
  5 45  1  0
  6 46  1  0
  7 47  1  0
  8 48  1  0
 13 49  1  0
 15 50  1  0
 16 51  1  0
 18 52  1  0
 20 53  1  0
 21 54  1  0
 21 55  1  0
 22 56  1  0
 22 57  1  0
 25 58  1  0
 26 59  1  0
 31 60  1  0
 32 61  1  0
 32 62  1  0
 33 63  1  0
 34 64  1  0
 35 65  1  0
 35 66  1  0
 36 67  1  0
 36 68  1  0
 37 69  1  0
 37 70  1  0
M  END
> <Name>
Molecule

> <AbsoluteEnergy>
78.2058

> <Clean Energy>
210.713

> <ConfNumber>
71

> <MOL_NUMBER>
1

> <RelativeEnergy>
14.9025

> <POSE_NUMBER>
26

> <LibDockScore>
121.062

> <HotSpots>
2.67,-22.92,49.98,A,39,6
-5.93,-24.72,51.19,A,53,15
-6.13,-22.12,49.98,A,41,18

$$$$
Molecule
  SciTegic05072616053D

 70 74  0  0  0  0            999 V2000
   -0.4522  -26.0995   47.8344 C   0  0  0  1  0  0
   -1.8069  -25.4380   47.5185 C   0  0  0  1  0  0
   -2.5046  -26.1103   46.3217 C   0  0  0  1  0  0
   -1.6795  -23.9423   47.3268 C   0  0  0  1  0  0
   -0.8408  -23.5158   46.2801 C   0  0  0  1  0  0
   -0.6575  -22.1566   46.0094 C   0  0  0  1  0  0
   -1.3210  -21.1975   46.7804 C   0  0  0  1  0  0
   -2.1575  -21.5982   47.8299 C   0  0  0  1  0  0
   -2.3452  -22.9658   48.1378 C   0  0  0  1  0  0
   -3.2245  -23.3657   49.3216 C   0  0  0  1  0  0
   -2.3576  -24.1872   50.3049 C   0  0  0  1  0  0
   -2.6741  -25.3127   50.6184 O   0  0  0  1  0  0
   -1.1882  -23.6279   50.8102 N   0  0  0  1  0  0
   -0.1761  -24.2856   51.4905 C   0  0  0  1  0  0
    1.1539  -24.1209   51.0469 C   0  0  0  1  0  0
    2.2027  -24.7848   51.7099 C   0  0  0  1  0  0
    1.9675  -25.5852   52.7855 N   0  0  0  1  0  0
    0.6941  -25.7439   53.2373 C   0  0  0  1  0  0
   -0.4042  -25.1058   52.6215 C   0  0  0  1  0  0
   -1.6193  -25.2677   53.1109 O   0  0  0  1  0  0
   -3.7655  -22.1693   50.2004 C   0  0  0  1  0  0
   -4.6897  -22.6305   51.3738 C   0  0  0  1  0  0
   -5.4038  -23.8770   50.9673 N   0  0  0  1  0  0
   -5.4221  -25.0495   51.7182 C   0  0  0  1  0  0
   -4.5440  -25.2410   52.8077 C   0  0  0  1  0  0
   -4.2345  -26.5460   53.2250 C   0  0  0  1  0  0
   -4.8322  -27.6367   52.5716 C   0  0  0  1  0  0
   -4.2344  -29.0099   52.6715 C   0  0  0  1  0  0
   -3.0542  -29.0754   51.7036 C   0  0  0  1  0  0
   -3.2529  -29.0015   50.5122 O   0  0  0  1  0  0
   -1.8138  -29.1619   52.1748 O   0  0  0  1  0  0
   -5.1041  -30.2320   52.8980 C   0  0  0  1  0  0
   -5.9516  -27.4288   51.7537 C   0  0  0  1  0  0
   -6.2588  -26.1281   51.3393 C   0  0  0  1  0  0
   -5.8131  -23.8287   49.5518 C   0  0  0  1  0  0
   -4.5170  -24.0858   48.7471 C   0  0  0  1  0  0
   -4.1804  -29.7521   53.9944 C   0  0  0  1  0  0
    0.1835  -26.0246   46.9521 H   0  0
   -0.6249  -27.1525   48.0570 H   0  0
    0.0238  -25.6090   48.6834 H   0  0
   -2.4436  -25.5905   48.3900 H   0  0
   -2.6588  -27.1632   46.5579 H   0  0
   -1.8504  -26.0353   45.4531 H   0  0
   -3.4599  -25.6274   46.1157 H   0  0
   -0.3255  -24.2578   45.6702 H   0  0
    0.0014  -21.8452   45.1988 H   0  0
   -1.1873  -20.1375   46.5647 H   0  0
   -2.6737  -20.8415   48.4207 H   0  0
   -1.0563  -22.5772   50.6570 H   0  0
    1.3683  -23.4801   50.1916 H   0  0
    3.2250  -24.6554   51.3546 H   0  0
    0.5164  -26.3837   54.1017 H   0  0
   -2.1826  -25.6207   52.2981 H   0  0
   -2.9180  -21.6222   50.6132 H   0  0
   -4.3224  -21.4836   49.5618 H   0  0
   -5.4174  -21.8496   51.5946 H   0  0
   -4.0843  -22.8295   52.2581 H   0  0
   -4.1099  -24.3828   53.3207 H   0  0
   -3.5380  -26.7107   54.0471 H   0  0
   -1.8220  -30.0131   52.7896 H   0  0
   -4.7030  -31.1094   52.3906 H   0  0
   -6.1397  -29.9554   53.0958 H   0  0
   -6.5740  -28.2687   51.4449 H   0  0
   -7.1409  -25.9450   50.7257 H   0  0
   -6.5407  -24.6136   49.3454 H   0  0
   -6.2115  -22.8434   49.3096 H   0  0
   -4.6738  -23.7568   47.7198 H   0  0
   -4.3352  -25.1600   48.7140 H   0  0
   -4.7255  -29.2209   54.7746 H   0  0
   -3.2881  -30.3737   54.0685 H   0  0
  1  2  1  0
  2  3  1  0
  2  4  1  0
  4  5  2  0
  4  9  1  0
  5  6  1  0
  6  7  2  0
  7  8  1  0
  8  9  2  0
  9 10  1  0
 10 11  1  0
 10 21  1  0
 10 36  1  0
 11 12  2  0
 11 13  1  0
 13 14  1  0
 14 15  2  0
 14 19  1  0
 15 16  1  0
 16 17  2  0
 17 18  1  0
 18 19  2  0
 19 20  1  0
 21 22  1  0
 22 23  1  0
 23 24  1  0
 23 35  1  0
 24 25  2  0
 24 34  1  0
 25 26  1  0
 26 27  2  0
 27 28  1  0
 27 33  1  0
 28 29  1  0
 28 32  1  0
 28 37  1  0
 29 30  2  0
 29 31  1  0
 32 37  1  0
 33 34  2  0
 35 36  1  0
  1 38  1  0
  1 39  1  0
  1 40  1  0
  2 41  1  0
  3 42  1  0
  3 43  1  0
  3 44  1  0
  5 45  1  0
  6 46  1  0
  7 47  1  0
  8 48  1  0
 13 49  1  0
 15 50  1  0
 16 51  1  0
 18 52  1  0
 20 53  1  0
 21 54  1  0
 21 55  1  0
 22 56  1  0
 22 57  1  0
 25 58  1  0
 26 59  1  0
 31 60  1  0
 32 61  1  0
 32 62  1  0
 33 63  1  0
 34 64  1  0
 35 65  1  0
 35 66  1  0
 36 67  1  0
 36 68  1  0
 37 69  1  0
 37 70  1  0
M  END
> <Name>
Molecule

> <AbsoluteEnergy>
83.021

> <Clean Energy>
210.713

> <ConfNumber>
104

> <MOL_NUMBER>
1

> <RelativeEnergy>
19.7177

> <POSE_NUMBER>
27

> <LibDockScore>
119.4245

> <HotSpots>
-0.93,-23.32,46.98,A,25,5
-4.73,-22.32,50.38,A,46,21
-6.53,-30.72,51.78,A,56,32

$$$$
Molecule
  SciTegic05072616053D

 70 74  0  0  0  0            999 V2000
   -5.6854  -22.1206   50.7321 C   0  0  0  1  0  0
   -5.5584  -23.5069   50.0559 C   0  0  0  1  0  0
   -6.9722  -24.1082   49.8183 C   0  0  0  1  0  0
   -4.7211  -23.4628   48.7813 C   0  0  0  1  0  0
   -5.2587  -22.6867   47.7312 C   0  0  0  1  0  0
   -4.5684  -22.5348   46.5159 C   0  0  0  1  0  0
   -3.3427  -23.1776   46.3235 C   0  0  0  1  0  0
   -2.7962  -23.9783   47.3438 C   0  0  0  1  0  0
   -3.4609  -24.1443   48.5970 C   0  0  0  1  0  0
   -2.8607  -25.0279   49.7040 C   0  0  0  1  0  0
   -1.3105  -25.1624   49.7020 C   0  0  0  1  0  0
   -0.8256  -26.2641   49.7961 O   0  0  0  1  0  0
   -0.4526  -24.0621   49.6193 N   0  0  0  1  0  0
    0.8998  -24.1114   49.9700 C   0  0  0  1  0  0
    1.2997  -24.8470   51.1098 C   0  0  0  1  0  0
    2.6524  -24.9100   51.4798 C   0  0  0  1  0  0
    3.6084  -24.2701   50.7536 N   0  0  0  1  0  0
    3.2543  -23.5445   49.6580 C   0  0  0  1  0  0
    1.9144  -23.4316   49.2340 C   0  0  0  1  0  0
    1.6739  -22.7009   48.1564 O   0  0  0  1  0  0
   -3.2410  -24.4474   51.1301 C   0  0  0  1  0  0
   -3.6664  -25.4344   52.2583 C   0  0  0  1  0  0
   -4.1201  -26.7816   51.7910 N   0  0  0  1  0  0
   -5.2340  -27.4382   52.3249 C   0  0  0  1  0  0
   -5.1878  -28.8204   52.6362 C   0  0  0  1  0  0
   -6.3162  -29.4801   53.1731 C   0  0  0  1  0  0
   -7.5053  -28.7655   53.4182 C   0  0  0  1  0  0
   -8.7317  -29.4684   54.0055 C   0  0  0  1  0  0
   -9.7145  -29.9911   52.9350 C   0  0  0  1  0  0
   -9.5448  -29.6688   51.7765 O   0  0  0  1  0  0
  -10.7454  -30.7884   53.2850 O   0  0  0  1  0  0
   -9.3267  -28.9082   55.2907 C   0  0  0  1  0  0
   -7.5600  -27.3831   53.1150 C   0  0  0  1  0  0
   -6.4403  -26.7346   52.5652 C   0  0  0  1  0  0
   -3.3000  -27.3749   50.7134 C   0  0  0  1  0  0
   -3.4085  -26.4821   49.4733 C   0  0  0  1  0  0
   -8.6029  -30.2324   55.3242 C   0  0  0  1  0  0
   -6.1987  -22.2298   51.6875 H   0  0
   -6.2593  -21.4549   50.0875 H   0  0
   -4.6930  -21.7012   50.8976 H   0  0
   -5.0153  -24.1668   50.7324 H   0  0
   -7.5454  -23.4413   49.1742 H   0  0
   -7.4847  -24.2162   50.7742 H   0  0
   -6.8801  -25.0843   49.3421 H   0  0
   -6.2237  -22.1979   47.8649 H   0  0
   -4.9893  -21.9156   45.7237 H   0  0
   -2.8085  -23.0586   45.3809 H   0  0
   -1.8450  -24.4827   47.1739 H   0  0
   -0.8519  -23.1332   49.2692 H   0  0
    0.5514  -25.3693   51.7059 H   0  0
    2.9412  -25.4804   52.3626 H   0  0
    4.0319  -23.0340   49.0898 H   0  0
    0.9561  -22.0111   48.4903 H   0  0
   -2.3941  -23.8662   51.4949 H   0  0
   -4.0450  -23.7234   50.9976 H   0  0
   -2.8260  -25.5693   52.9392 H   0  0
   -4.4712  -24.9797   52.8360 H   0  0
   -4.2702  -29.3815   52.4592 H   0  0
   -6.2664  -30.5454   53.3984 H   0  0
  -11.2652  -30.2388   54.0132 H   0  0
  -10.4083  -29.0397   55.3212 H   0  0
   -8.7136  -28.1037   55.6970 H   0  0
   -8.4731  -26.8202   53.3085 H   0  0
   -6.5010  -25.6743   52.3200 H   0  0
   -3.6697  -28.3729   50.4779 H   0  0
   -2.2595  -27.4303   51.0335 H   0  0
   -2.8543  -26.9448   48.6567 H   0  0
   -4.4544  -26.4228   49.1723 H   0  0
   -7.6024  -30.1342   55.7454 H   0  0
   -9.2981  -31.0708   55.3677 H   0  0
  1  2  1  0
  2  3  1  0
  2  4  1  0
  4  5  2  0
  4  9  1  0
  5  6  1  0
  6  7  2  0
  7  8  1  0
  8  9  2  0
  9 10  1  0
 10 11  1  0
 10 21  1  0
 10 36  1  0
 11 12  2  0
 11 13  1  0
 13 14  1  0
 14 15  2  0
 14 19  1  0
 15 16  1  0
 16 17  2  0
 17 18  1  0
 18 19  2  0
 19 20  1  0
 21 22  1  0
 22 23  1  0
 23 24  1  0
 23 35  1  0
 24 25  2  0
 24 34  1  0
 25 26  1  0
 26 27  2  0
 27 28  1  0
 27 33  1  0
 28 29  1  0
 28 32  1  0
 28 37  1  0
 29 30  2  0
 29 31  1  0
 32 37  1  0
 33 34  2  0
 35 36  1  0
  1 38  1  0
  1 39  1  0
  1 40  1  0
  2 41  1  0
  3 42  1  0
  3 43  1  0
  3 44  1  0
  5 45  1  0
  6 46  1  0
  7 47  1  0
  8 48  1  0
 13 49  1  0
 15 50  1  0
 16 51  1  0
 18 52  1  0
 20 53  1  0
 21 54  1  0
 21 55  1  0
 22 56  1  0
 22 57  1  0
 25 58  1  0
 26 59  1  0
 31 60  1  0
 32 61  1  0
 32 62  1  0
 33 63  1  0
 34 64  1  0
 35 65  1  0
 35 66  1  0
 36 67  1  0
 36 68  1  0
 37 69  1  0
 37 70  1  0
M  END
> <Name>
Molecule

> <AbsoluteEnergy>
80.0339

> <Clean Energy>
210.713

> <ConfNumber>
80

> <MOL_NUMBER>
1

> <RelativeEnergy>
16.7306

> <POSE_NUMBER>
28

> <LibDockScore>
118.7487

> <HotSpots>
-6.53,-23.32,50.38,A,45,1
-3.53,-22.32,46.59,A,20,7
3.07,-24.52,50.38,A,43,16

$$$$
Molecule
  SciTegic05072616053D

 70 74  0  0  0  0            999 V2000
    0.2536  -25.5867   47.5260 C   0  0  0  1  0  0
   -0.3030  -24.5453   48.5123 C   0  0  0  1  0  0
   -0.4789  -23.1703   47.8443 C   0  0  0  1  0  0
    0.5194  -24.4694   49.7803 C   0  0  0  1  0  0
    1.8814  -24.1252   49.6308 C   0  0  0  1  0  0
    2.7371  -24.0408   50.7337 C   0  0  0  1  0  0
    2.2386  -24.2867   52.0138 C   0  0  0  1  0  0
    0.8875  -24.6004   52.1872 C   0  0  0  1  0  0
   -0.0012  -24.7275   51.0908 C   0  0  0  1  0  0
   -1.4645  -25.1236   51.3329 C   0  0  0  1  0  0
   -2.3846  -24.0258   50.7726 C   0  0  0  1  0  0
   -2.3545  -22.9291   51.2899 O   0  0  0  1  0  0
   -3.2279  -24.2524   49.6974 N   0  0  0  1  0  0
   -4.2515  -23.4041   49.3102 C   0  0  0  1  0  0
   -4.8589  -22.5247   50.2307 C   0  0  0  1  0  0
   -5.8775  -21.6524   49.7948 C   0  0  0  1  0  0
   -6.3111  -21.6540   48.5009 N   0  0  0  1  0  0
   -5.7463  -22.5135   47.6076 C   0  0  0  1  0  0
   -4.7119  -23.4026   47.9722 C   0  0  0  1  0  0
   -4.1773  -24.2119   47.0736 O   0  0  0  1  0  0
   -1.8872  -25.1780   52.8485 C   0  0  0  1  0  0
   -1.3757  -26.3793   53.6797 C   0  0  0  1  0  0
   -1.5819  -27.6282   52.9185 N   0  0  0  1  0  0
   -2.3170  -28.6871   53.4122 C   0  0  0  1  0  0
   -2.3463  -28.9727   54.7925 C   0  0  0  1  0  0
   -3.0904  -30.0642   55.2662 C   0  0  0  1  0  0
   -3.8198  -30.8611   54.3657 C   0  0  0  1  0  0
   -4.6370  -32.0104   54.8773 C   0  0  0  1  0  0
   -5.8515  -31.5630   55.6936 C   0  0  0  1  0  0
   -6.1136  -30.3844   55.7907 O   0  0  0  1  0  0
   -6.6064  -32.4832   56.2855 O   0  0  0  1  0  0
   -3.8928  -33.2717   55.2852 C   0  0  0  1  0  0
   -3.7954  -30.5771   52.9870 C   0  0  0  1  0  0
   -3.0514  -29.4921   52.5170 C   0  0  0  1  0  0
   -1.0129  -27.6453   51.5558 C   0  0  0  1  0  0
   -1.7226  -26.5597   50.7529 C   0  0  0  1  0  0
   -4.7319  -33.2716   54.0267 C   0  0  0  1  0  0
    1.2167  -25.2348   47.1563 H   0  0
   -0.4369  -25.6743   46.6872 H   0  0
    0.3708  -26.5524   48.0177 H   0  0
   -1.2965  -24.8805   48.8103 H   0  0
   -1.1633  -23.2781   47.0028 H   0  0
    0.4904  -22.8386   47.4720 H   0  0
   -0.8736  -22.4476   48.5585 H   0  0
    2.2737  -23.9211   48.6345 H   0  0
    3.7873  -23.7844   50.5943 H   0  0
    2.9019  -24.2342   52.8772 H   0  0
    0.5058  -24.7519   53.1969 H   0  0
   -3.0780  -25.1448   49.1264 H   0  0
   -4.5425  -22.5194   51.2738 H   0  0
   -6.3285  -20.9616   50.5071 H   0  0
   -6.1045  -22.5149   46.5781 H   0  0
   -4.2876  -25.1717   47.4849 H   0  0
   -1.5512  -24.2606   53.3318 H   0  0
   -2.9757  -25.1642   52.9031 H   0  0
   -0.3132  -26.2519   53.8868 H   0  0
   -1.9252  -26.4325   54.6195 H   0  0
   -1.7915  -28.3463   55.4911 H   0  0
   -3.1030  -30.2943   56.3316 H   0  0
   -5.9460  -33.0277   56.8936 H   0  0
   -4.3960  -33.7869   56.1034 H   0  0
   -2.8290  -33.1993   55.0588 H   0  0
   -4.3544  -31.2009   52.2895 H   0  0
   -3.0384  -29.2661   51.4508 H   0  0
   -1.1876  -28.6171   51.0942 H   0  0
    0.0550  -27.4315   51.5992 H   0  0
   -1.3739  -26.5965   49.7208 H   0  0
   -2.7943  -26.7585   50.7568 H   0  0
   -4.1140  -33.1976   53.1318 H   0  0
   -5.6822  -33.7838   54.1771 H   0  0
  1  2  1  0
  2  3  1  0
  2  4  1  0
  4  5  2  0
  4  9  1  0
  5  6  1  0
  6  7  2  0
  7  8  1  0
  8  9  2  0
  9 10  1  0
 10 11  1  0
 10 21  1  0
 10 36  1  0
 11 12  2  0
 11 13  1  0
 13 14  1  0
 14 15  2  0
 14 19  1  0
 15 16  1  0
 16 17  2  0
 17 18  1  0
 18 19  2  0
 19 20  1  0
 21 22  1  0
 22 23  1  0
 23 24  1  0
 23 35  1  0
 24 25  2  0
 24 34  1  0
 25 26  1  0
 26 27  2  0
 27 28  1  0
 27 33  1  0
 28 29  1  0
 28 32  1  0
 28 37  1  0
 29 30  2  0
 29 31  1  0
 32 37  1  0
 33 34  2  0
 35 36  1  0
  1 38  1  0
  1 39  1  0
  1 40  1  0
  2 41  1  0
  3 42  1  0
  3 43  1  0
  3 44  1  0
  5 45  1  0
  6 46  1  0
  7 47  1  0
  8 48  1  0
 13 49  1  0
 15 50  1  0
 16 51  1  0
 18 52  1  0
 20 53  1  0
 21 54  1  0
 21 55  1  0
 22 56  1  0
 22 57  1  0
 25 58  1  0
 26 59  1  0
 31 60  1  0
 32 61  1  0
 32 62  1  0
 33 63  1  0
 34 64  1  0
 35 65  1  0
 35 66  1  0
 36 67  1  0
 36 68  1  0
 37 69  1  0
 37 70  1  0
M  END
> <Name>
Molecule

> <AbsoluteEnergy>
71.0588

> <Clean Energy>
210.713

> <ConfNumber>
26

> <MOL_NUMBER>
1

> <RelativeEnergy>
7.75547

> <POSE_NUMBER>
29

> <LibDockScore>
118.5733

> <HotSpots>
-0.93,-23.32,46.98,A,25,3
1.67,-24.32,50.98,A,50,7
-4.33,-32.92,55.19,A,75,32

$$$$
Molecule
  SciTegic05072616053D

 70 74  0  0  0  0            999 V2000
    0.1325  -25.7874   47.9539 C   0  0  0  1  0  0
   -1.3137  -25.3233   47.6979 C   0  0  0  1  0  0
   -2.0240  -26.2148   46.6626 C   0  0  0  1  0  0
   -1.3838  -23.8593   47.3209 C   0  0  0  1  0  0
   -0.5837  -23.4545   46.2361 C   0  0  0  1  0  0
   -0.5780  -22.1269   45.7984 C   0  0  0  1  0  0
   -1.3839  -21.1798   46.4372 C   0  0  0  1  0  0
   -2.1854  -21.5585   47.5216 C   0  0  0  1  0  0
   -2.1952  -22.8905   47.9972 C   0  0  0  1  0  0
   -3.0427  -23.2578   49.2144 C   0  0  0  1  0  0
   -2.1552  -24.0694   50.1873 C   0  0  0  1  0  0
   -2.4765  -25.1831   50.5366 O   0  0  0  1  0  0
   -0.9623  -23.5159   50.6414 N   0  0  0  1  0  0
    0.0391  -24.1602   51.3497 C   0  0  0  1  0  0
    1.3700  -24.0470   50.8926 C   0  0  0  1  0  0
    2.4079  -24.6992   51.5837 C   0  0  0  1  0  0
    2.1614  -25.4390   52.6995 N   0  0  0  1  0  0
    0.8873  -25.5469   53.1642 C   0  0  0  1  0  0
   -0.2004  -24.9170   52.5217 C   0  0  0  1  0  0
   -1.4160  -25.0276   53.0239 O   0  0  0  1  0  0
   -3.5448  -22.0388   50.0851 C   0  0  0  1  0  0
   -4.4381  -22.4671   51.2945 C   0  0  0  1  0  0
   -5.1768  -23.7134   50.9341 N   0  0  0  1  0  0
   -5.1845  -24.8709   51.7081 C   0  0  0  1  0  0
   -4.3163  -25.0259   52.8113 C   0  0  0  1  0  0
   -3.9903  -26.3170   53.2583 C   0  0  0  1  0  0
   -4.5621  -27.4304   52.6200 C   0  0  0  1  0  0
   -3.9428  -28.7911   52.7545 C   0  0  0  1  0  0
   -2.8091  -28.8893   51.7351 C   0  0  0  1  0  0
   -3.0668  -29.1071   50.5731 O   0  0  0  1  0  0
   -1.5524  -28.6854   52.1191 O   0  0  0  1  0  0
   -4.7853  -30.0102   53.0785 C   0  0  0  1  0  0
   -5.6750  -27.2575   51.7854 C   0  0  0  1  0  0
   -5.9987  -25.9708   51.3413 C   0  0  0  1  0  0
   -5.6279  -23.6882   49.5307 C   0  0  0  1  0  0
   -4.3592  -23.9749   48.6929 C   0  0  0  1  0  0
   -3.8169  -29.4701   54.1061 C   0  0  0  1  0  0
    0.6778  -25.7568   47.0106 H   0  0
    0.1072  -26.8159   48.3140 H   0  0
    0.6160  -25.1436   48.6886 H   0  0
   -1.8516  -25.4319   48.6397 H   0  0
   -2.0299  -27.2394   47.0344 H   0  0
   -1.4593  -26.1803   45.7309 H   0  0
   -3.0444  -25.8692   46.4967 H   0  0
    0.0421  -24.1886   45.7286 H   0  0
    0.0535  -21.8307   44.9608 H   0  0
   -1.3885  -20.1462   46.0912 H   0  0
   -2.8136  -20.8125   48.0083 H   0  0
   -0.8009  -22.4816   50.4199 H   0  0
    1.5934  -23.4549   50.0051 H   0  0
    3.4308  -24.6101   51.2179 H   0  0
    0.7006  -26.1382   54.0606 H   0  0
   -1.9911  -25.4089   52.2325 H   0  0
   -2.6797  -21.4929   50.4616 H   0  0
   -4.1136  -21.3597   49.4500 H   0  0
   -5.1508  -21.6742   51.5214 H   0  0
   -3.8085  -22.6555   52.1641 H   0  0
   -3.9025  -24.1505   53.3119 H   0  0
   -3.3010  -26.4537   54.0915 H   0  0
   -1.3971  -29.3738   52.8966 H   0  0
   -4.3976  -30.9061   52.5935 H   0  0
   -5.8138  -29.7355   53.3126 H   0  0
   -6.2798  -28.1136   51.4865 H   0  0
   -6.8762  -25.8148   50.7139 H   0  0
   -6.3693  -24.4691   49.3616 H   0  0
   -6.0233  -22.7036   49.2811 H   0  0
   -4.5434  -23.6642   47.6645 H   0  0
   -4.1895  -25.0515   48.6756 H   0  0
   -4.3311  -28.9087   54.8862 H   0  0
   -2.9143  -30.0783   54.1660 H   0  0
  1  2  1  0
  2  3  1  0
  2  4  1  0
  4  5  2  0
  4  9  1  0
  5  6  1  0
  6  7  2  0
  7  8  1  0
  8  9  2  0
  9 10  1  0
 10 11  1  0
 10 21  1  0
 10 36  1  0
 11 12  2  0
 11 13  1  0
 13 14  1  0
 14 15  2  0
 14 19  1  0
 15 16  1  0
 16 17  2  0
 17 18  1  0
 18 19  2  0
 19 20  1  0
 21 22  1  0
 22 23  1  0
 23 24  1  0
 23 35  1  0
 24 25  2  0
 24 34  1  0
 25 26  1  0
 26 27  2  0
 27 28  1  0
 27 33  1  0
 28 29  1  0
 28 32  1  0
 28 37  1  0
 29 30  2  0
 29 31  1  0
 32 37  1  0
 33 34  2  0
 35 36  1  0
  1 38  1  0
  1 39  1  0
  1 40  1  0
  2 41  1  0
  3 42  1  0
  3 43  1  0
  3 44  1  0
  5 45  1  0
  6 46  1  0
  7 47  1  0
  8 48  1  0
 13 49  1  0
 15 50  1  0
 16 51  1  0
 18 52  1  0
 20 53  1  0
 21 54  1  0
 21 55  1  0
 22 56  1  0
 22 57  1  0
 25 58  1  0
 26 59  1  0
 31 60  1  0
 32 61  1  0
 32 62  1  0
 33 63  1  0
 34 64  1  0
 35 65  1  0
 35 66  1  0
 36 67  1  0
 36 68  1  0
 37 69  1  0
 37 70  1  0
M  END
> <Name>
Molecule

> <AbsoluteEnergy>
83.021

> <Clean Energy>
210.713

> <ConfNumber>
104

> <MOL_NUMBER>
1

> <RelativeEnergy>
19.7177

> <POSE_NUMBER>
30

> <LibDockScore>
118.2037

> <HotSpots>
-2.93,-26.32,45.98,A,15,3
-2.53,-21.12,45.98,A,16,7
0.87,-24.32,52.78,A,63,18

$$$$
Molecule
  SciTegic05072616053D

 70 74  0  0  0  0            999 V2000
   -3.8511  -24.6743   46.8753 C   0  0  0  1  0  0
   -3.1463  -24.2835   48.1924 C   0  0  0  1  0  0
   -2.0280  -23.2580   47.9274 C   0  0  0  1  0  0
   -4.1233  -23.7843   49.2331 C   0  0  0  1  0  0
   -4.8422  -22.6102   48.9053 C   0  0  0  1  0  0
   -5.8256  -22.0905   49.7553 C   0  0  0  1  0  0
   -6.0969  -22.7289   50.9651 C   0  0  0  1  0  0
   -5.3714  -23.8666   51.3292 C   0  0  0  1  0  0
   -4.3645  -24.4264   50.4936 C   0  0  0  1  0  0
   -3.6293  -25.6915   50.9629 C   0  0  0  1  0  0
   -2.1130  -25.6822   50.7371 C   0  0  0  1  0  0
   -1.6108  -26.5421   50.0493 O   0  0  0  1  0  0
   -1.3232  -24.7353   51.3638 N   0  0  0  1  0  0
    0.0308  -24.5750   51.1434 C   0  0  0  1  0  0
    0.6036  -24.7234   49.8628 C   0  0  0  1  0  0
    1.9967  -24.6033   49.7111 C   0  0  0  1  0  0
    2.8055  -24.3378   50.7773 N   0  0  0  1  0  0
    2.2645  -24.1685   52.0186 C   0  0  0  1  0  0
    0.8749  -24.2730   52.2388 C   0  0  0  1  0  0
    0.3696  -24.1199   53.4534 O   0  0  0  1  0  0
   -4.3063  -26.9118   50.2272 C   0  0  0  1  0  0
   -3.9738  -28.3083   50.8080 C   0  0  0  1  0  0
   -4.1921  -28.2430   52.2652 N   0  0  0  1  0  0
   -5.2972  -28.7537   52.9221 C   0  0  0  1  0  0
   -6.5661  -28.7452   52.3011 C   0  0  0  1  0  0
   -7.7174  -28.9539   53.0722 C   0  0  0  1  0  0
   -7.6031  -29.1840   54.4542 C   0  0  0  1  0  0
   -8.8322  -29.1526   55.3178 C   0  0  0  1  0  0
   -9.5949  -30.4653   55.3876 C   0  0  0  1  0  0
  -10.5189  -30.6333   54.6251 O   0  0  0  1  0  0
   -9.2346  -31.3878   56.2828 O   0  0  0  1  0  0
   -9.6244  -27.8525   55.3159 C   0  0  0  1  0  0
   -6.3364  -29.4046   55.0232 C   0  0  0  1  0  0
   -5.1847  -29.2173   54.2509 C   0  0  0  1  0  0
   -3.2495  -27.3315   52.9497 C   0  0  0  1  0  0
   -3.7171  -25.9303   52.5270 C   0  0  0  1  0  0
   -8.8347  -28.2489   56.5382 C   0  0  0  1  0  0
   -3.1168  -25.1045   46.1943 H   0  0
   -4.2778  -23.7794   46.4224 H   0  0
   -4.6399  -25.3997   47.0746 H   0  0
   -2.6895  -25.1848   48.6011 H   0  0
   -2.4629  -22.3694   47.4698 H   0  0
   -1.3018  -23.6945   47.2417 H   0  0
   -1.5377  -22.9895   48.8632 H   0  0
   -4.6249  -22.0980   47.9680 H   0  0
   -6.3757  -21.1927   49.4734 H   0  0
   -6.8730  -22.3415   51.6252 H   0  0
   -5.5842  -24.3418   52.2868 H   0  0
   -1.7938  -24.0817   52.0682 H   0  0
   -0.0279  -24.9293   48.9985 H   0  0
    2.4389  -24.7247   48.7222 H   0  0
    2.9215  -23.9473   52.8598 H   0  0
   -0.1468  -25.0148   53.6406 H   0  0
   -4.0111  -26.8942   49.1781 H   0  0
   -5.3875  -26.7757   50.2503 H   0  0
   -2.9321  -28.5548   50.6025 H   0  0
   -4.6348  -29.0560   50.3697 H   0  0
   -6.6492  -28.5771   51.2273 H   0  0
   -8.7002  -28.9378   52.6010 H   0  0
   -9.2806  -30.8965   57.2096 H   0  0
  -10.6909  -28.0341   55.4493 H   0  0
   -9.1168  -27.0768   54.7426 H   0  0
   -6.2518  -29.7206   56.0629 H   0  0
   -4.2028  -29.4289   54.6743 H   0  0
   -3.3340  -27.4440   54.0306 H   0  0
   -2.2322  -27.5077   52.6002 H   0  0
   -3.1040  -25.1856   53.0345 H   0  0
   -4.7483  -25.7899   52.8509 H   0  0
   -7.9070  -27.6824   56.6190 H   0  0
   -9.4798  -28.6407   57.3246 H   0  0
  1  2  1  0
  2  3  1  0
  2  4  1  0
  4  5  2  0
  4  9  1  0
  5  6  1  0
  6  7  2  0
  7  8  1  0
  8  9  2  0
  9 10  1  0
 10 11  1  0
 10 21  1  0
 10 36  1  0
 11 12  2  0
 11 13  1  0
 13 14  1  0
 14 15  2  0
 14 19  1  0
 15 16  1  0
 16 17  2  0
 17 18  1  0
 18 19  2  0
 19 20  1  0
 21 22  1  0
 22 23  1  0
 23 24  1  0
 23 35  1  0
 24 25  2  0
 24 34  1  0
 25 26  1  0
 26 27  2  0
 27 28  1  0
 27 33  1  0
 28 29  1  0
 28 32  1  0
 28 37  1  0
 29 30  2  0
 29 31  1  0
 32 37  1  0
 33 34  2  0
 35 36  1  0
  1 38  1  0
  1 39  1  0
  1 40  1  0
  2 41  1  0
  3 42  1  0
  3 43  1  0
  3 44  1  0
  5 45  1  0
  6 46  1  0
  7 47  1  0
  8 48  1  0
 13 49  1  0
 15 50  1  0
 16 51  1  0
 18 52  1  0
 20 53  1  0
 21 54  1  0
 21 55  1  0
 22 56  1  0
 22 57  1  0
 25 58  1  0
 26 59  1  0
 31 60  1  0
 32 61  1  0
 32 62  1  0
 33 63  1  0
 34 64  1  0
 35 65  1  0
 35 66  1  0
 36 67  1  0
 36 68  1  0
 37 69  1  0
 37 70  1  0
M  END
> <Name>
Molecule

> <AbsoluteEnergy>
77.8586

> <Clean Energy>
210.713

> <ConfNumber>
69

> <MOL_NUMBER>
1

> <RelativeEnergy>
14.5553

> <POSE_NUMBER>
31

> <LibDockScore>
118.0253

> <HotSpots>
-5.13,-23.32,51.38,A,54,8
2.27,-24.92,52.19,A,58,18
-7.93,-28.32,52.38,A,59,26

$$$$
Molecule
  SciTegic05072616053D

 70 74  0  0  0  0            999 V2000
    1.2066  -25.8703   47.9573 C   0  0  0  1  0  0
    0.4905  -24.8566   48.8722 C   0  0  0  1  0  0
    0.4698  -23.4304   48.2895 C   0  0  0  1  0  0
    1.0574  -24.8716   50.2742 C   0  0  0  1  0  0
    2.4401  -24.6039   50.4033 C   0  0  0  1  0  0
    3.0632  -24.5698   51.6560 C   0  0  0  1  0  0
    2.3064  -24.7943   52.8071 C   0  0  0  1  0  0
    0.9343  -25.0731   52.7051 C   0  0  0  1  0  0
    0.2751  -25.1264   51.4466 C   0  0  0  1  0  0
   -1.2319  -25.4313   51.3599 C   0  0  0  1  0  0
   -1.9144  -24.2424   50.6445 C   0  0  0  1  0  0
   -1.8487  -23.1440   51.1509 O   0  0  0  1  0  0
   -2.5684  -24.4200   49.4386 N   0  0  0  1  0  0
   -3.6228  -23.6912   48.8898 C   0  0  0  1  0  0
   -4.3402  -22.7188   49.6273 C   0  0  0  1  0  0
   -5.4758  -22.1028   49.0656 C   0  0  0  1  0  0
   -5.9101  -22.4227   47.8175 N   0  0  0  1  0  0
   -5.2083  -23.3207   47.0698 C   0  0  0  1  0  0
   -4.0366  -23.9389   47.5516 C   0  0  0  1  0  0
   -3.3659  -24.7130   46.7117 O   0  0  0  1  0  0
   -1.9214  -25.5592   52.7452 C   0  0  0  1  0  0
   -3.4351  -25.8694   52.6875 C   0  0  0  1  0  0
   -3.8073  -27.0358   51.8271 N   0  0  0  1  0  0
   -5.0823  -27.6256   51.9426 C   0  0  0  1  0  0
   -6.2276  -26.8540   52.2685 C   0  0  0  1  0  0
   -7.4967  -27.4532   52.4207 C   0  0  0  1  0  0
   -7.6623  -28.8402   52.2422 C   0  0  0  1  0  0
   -9.0161  -29.5175   52.4430 C   0  0  0  1  0  0
   -9.8317  -29.7989   51.1702 C   0  0  0  1  0  0
   -9.2663  -30.1751   50.1667 O   0  0  0  1  0  0
  -11.1634  -29.6196   51.1912 O   0  0  0  1  0  0
   -9.1101  -30.5457   53.5652 C   0  0  0  1  0  0
   -6.5424  -29.6089   51.8820 C   0  0  0  1  0  0
   -5.2729  -29.0172   51.7347 C   0  0  0  1  0  0
   -2.8172  -27.5499   50.8192 C   0  0  0  1  0  0
   -1.4180  -26.8699   50.7706 C   0  0  0  1  0  0
   -9.7955  -29.2106   53.7135 C   0  0  0  1  0  0
    2.2282  -25.5221   47.8051 H   0  0
    0.6939  -25.8752   46.9954 H   0  0
    1.2032  -26.8671   48.3984 H   0  0
   -0.5484  -25.1815   48.9282 H   0  0
   -0.0325  -23.4698   47.3229 H   0  0
    1.5018  -23.1167   48.1326 H   0  0
   -0.0427  -22.7404   48.9598 H   0  0
    3.0334  -24.4201   49.5076 H   0  0
    4.1319  -24.3693   51.7322 H   0  0
    2.7817  -24.7531   53.7872 H   0  0
    0.3598  -25.2533   53.6137 H   0  0
   -2.2142  -25.2338   48.8410 H   0  0
   -4.0135  -22.4464   50.6309 H   0  0
   -6.0176  -21.3541   49.6436 H   0  0
   -5.5637  -23.5682   46.0695 H   0  0
   -3.2871  -25.6217   47.2319 H   0  0
   -1.7768  -24.6298   53.2961 H   0  0
   -1.4251  -26.3474   53.3114 H   0  0
   -3.9602  -24.9869   52.3219 H   0  0
   -3.7925  -26.0567   53.7000 H   0  0
   -6.1255  -25.7773   52.4040 H   0  0
   -8.3572  -26.8360   52.6790 H   0  0
  -11.2982  -28.6224   51.4910 H   0  0
   -8.1872  -30.5912   54.1433 H   0  0
   -9.8185  -31.3376   53.3219 H   0  0
   -6.6581  -30.6796   51.7140 H   0  0
   -4.4217  -29.6385   51.4562 H   0  0
   -2.6730  -28.6154   50.9981 H   0  0
   -3.2681  -27.4738   49.8298 H   0  0
   -1.0933  -26.8498   49.7303 H   0  0
   -0.7091  -27.5309   51.2692 H   0  0
  -10.8706  -29.2897   53.5521 H   0  0
   -9.2393  -28.5432   54.3717 H   0  0
  1  2  1  0
  2  3  1  0
  2  4  1  0
  4  5  2  0
  4  9  1  0
  5  6  1  0
  6  7  2  0
  7  8  1  0
  8  9  2  0
  9 10  1  0
 10 11  1  0
 10 21  1  0
 10 36  1  0
 11 12  2  0
 11 13  1  0
 13 14  1  0
 14 15  2  0
 14 19  1  0
 15 16  1  0
 16 17  2  0
 17 18  1  0
 18 19  2  0
 19 20  1  0
 21 22  1  0
 22 23  1  0
 23 24  1  0
 23 35  1  0
 24 25  2  0
 24 34  1  0
 25 26  1  0
 26 27  2  0
 27 28  1  0
 27 33  1  0
 28 29  1  0
 28 32  1  0
 28 37  1  0
 29 30  2  0
 29 31  1  0
 32 37  1  0
 33 34  2  0
 35 36  1  0
  1 38  1  0
  1 39  1  0
  1 40  1  0
  2 41  1  0
  3 42  1  0
  3 43  1  0
  3 44  1  0
  5 45  1  0
  6 46  1  0
  7 47  1  0
  8 48  1  0
 13 49  1  0
 15 50  1  0
 16 51  1  0
 18 52  1  0
 20 53  1  0
 21 54  1  0
 21 55  1  0
 22 56  1  0
 22 57  1  0
 25 58  1  0
 26 59  1  0
 31 60  1  0
 32 61  1  0
 32 62  1  0
 33 63  1  0
 34 64  1  0
 35 65  1  0
 35 66  1  0
 36 67  1  0
 36 68  1  0
 37 69  1  0
 37 70  1  0
M  END
> <Name>
Molecule

> <AbsoluteEnergy>
72.1097

> <Clean Energy>
210.713

> <ConfNumber>
31

> <MOL_NUMBER>
1

> <RelativeEnergy>
8.80637

> <POSE_NUMBER>
32

> <LibDockScore>
117.2019

> <HotSpots>
1.67,-24.32,50.98,A,50,5
-4.73,-22.32,50.38,A,46,15
-7.93,-28.32,52.38,A,59,26

$$$$
Molecule
  SciTegic05072616053D

 70 74  0  0  0  0            999 V2000
   -2.9501  -23.0106   48.8306 C   0  0  0  1  0  0
   -3.3234  -24.5013   48.9274 C   0  0  0  1  0  0
   -4.0072  -25.0008   47.6409 C   0  0  0  1  0  0
   -4.1536  -24.8010   50.1545 C   0  0  0  1  0  0
   -5.4556  -24.2532   50.1931 C   0  0  0  1  0  0
   -6.2916  -24.4415   51.2998 C   0  0  0  1  0  0
   -5.8299  -25.1699   52.3977 C   0  0  0  1  0  0
   -4.5431  -25.7227   52.3776 C   0  0  0  1  0  0
   -3.6871  -25.5939   51.2532 C   0  0  0  1  0  0
   -2.3091  -26.2814   51.2408 C   0  0  0  1  0  0
   -1.2443  -25.1945   51.0880 C   0  0  0  1  0  0
   -1.1743  -24.3741   51.9779 O   0  0  0  1  0  0
   -0.3888  -25.1266   49.9981 N   0  0  0  1  0  0
    0.9360  -24.7220   50.0906 C   0  0  0  1  0  0
    1.5552  -24.0671   49.0022 C   0  0  0  1  0  0
    2.8890  -23.6339   49.1177 C   0  0  0  1  0  0
    3.6079  -23.8368   50.2563 N   0  0  0  1  0  0
    3.0363  -24.4874   51.3082 C   0  0  0  1  0  0
    1.7085  -24.9581   51.2590 C   0  0  0  1  0  0
    1.1949  -25.6194   52.2849 O   0  0  0  1  0  0
   -2.3103  -27.4660   50.2107 C   0  0  0  1  0  0
   -3.4127  -28.5199   50.5126 C   0  0  0  1  0  0
   -3.6384  -28.6481   51.9861 N   0  0  0  1  0  0
   -4.9056  -28.8152   52.5505 C   0  0  0  1  0  0
   -6.0652  -28.3594   51.8812 C   0  0  0  1  0  0
   -7.3163  -28.3682   52.5220 C   0  0  0  1  0  0
   -7.4323  -28.8440   53.8402 C   0  0  0  1  0  0
   -8.7399  -28.7473   54.5916 C   0  0  0  1  0  0
   -9.5373  -30.0490   54.6199 C   0  0  0  1  0  0
  -10.5423  -30.1628   53.9523 O   0  0  0  1  0  0
   -9.1131  -31.0491   55.3936 O   0  0  0  1  0  0
   -8.7432  -27.9088   55.8635 C   0  0  0  1  0  0
   -6.3080  -29.4009   54.4716 C   0  0  0  1  0  0
   -5.0631  -29.4031   53.8289 C   0  0  0  1  0  0
   -2.4011  -28.4369   52.7804 C   0  0  0  1  0  0
   -1.8878  -26.9847   52.5919 C   0  0  0  1  0  0
   -9.4683  -27.4096   54.6397 C   0  0  0  1  0  0
   -3.8596  -22.4363   48.6541 H   0  0
   -2.2771  -22.8761   47.9838 H   0  0
   -2.4682  -22.6776   49.7498 H   0  0
   -2.3906  -25.0549   49.0347 H   0  0
   -3.3250  -24.8490   46.8044 H   0  0
   -4.9075  -24.4092   47.4748 H   0  0
   -4.2629  -26.0566   47.7300 H   0  0
   -5.8161  -23.6724   49.3441 H   0  0
   -7.2975  -24.0218   51.3044 H   0  0
   -6.4698  -25.3082   53.2692 H   0  0
   -4.1885  -26.2683   53.2521 H   0  0
   -0.7697  -25.4002   49.0364 H   0  0
    1.0025  -23.8984   48.0780 H   0  0
    3.3578  -23.1240   48.2761 H   0  0
    3.6222  -24.6484   52.2131 H   0  0
    0.8797  -26.5345   51.8777 H   0  0
   -2.4669  -27.0660   49.2089 H   0  0
   -1.3368  -27.9560   50.2296 H   0  0
   -3.1082  -29.4863   50.1108 H   0  0
   -4.3427  -28.2161   50.0320 H   0  0
   -5.9878  -27.9969   50.8561 H   0  0
   -8.1990  -28.0052   51.9956 H   0  0
   -9.0559  -30.6425   56.3600 H   0  0
   -7.7924  -27.3952   56.0060 H   0  0
   -9.4335  -28.3113   56.6048 H   0  0
   -6.4046  -29.8338   55.4673 H   0  0
   -4.2051  -29.8631   54.3191 H   0  0
   -2.6142  -28.6108   53.8351 H   0  0
   -1.6338  -29.1369   52.4497 H   0  0
   -0.7997  -26.9914   52.6558 H   0  0
   -2.2456  -26.3807   53.4257 H   0  0
  -10.5464  -27.5447   54.7270 H   0  0
   -8.9047  -26.6300   54.1272 H   0  0
  1  2  1  0
  2  3  1  0
  2  4  1  0
  4  5  2  0
  4  9  1  0
  5  6  1  0
  6  7  2  0
  7  8  1  0
  8  9  2  0
  9 10  1  0
 10 11  1  0
 10 21  1  0
 10 36  1  0
 11 12  2  0
 11 13  1  0
 13 14  1  0
 14 15  2  0
 14 19  1  0
 15 16  1  0
 16 17  2  0
 17 18  1  0
 18 19  2  0
 19 20  1  0
 21 22  1  0
 22 23  1  0
 23 24  1  0
 23 35  1  0
 24 25  2  0
 24 34  1  0
 25 26  1  0
 26 27  2  0
 27 28  1  0
 27 33  1  0
 28 29  1  0
 28 32  1  0
 28 37  1  0
 29 30  2  0
 29 31  1  0
 32 37  1  0
 33 34  2  0
 35 36  1  0
  1 38  1  0
  1 39  1  0
  1 40  1  0
  2 41  1  0
  3 42  1  0
  3 43  1  0
  3 44  1  0
  5 45  1  0
  6 46  1  0
  7 47  1  0
  8 48  1  0
 13 49  1  0
 15 50  1  0
 16 51  1  0
 18 52  1  0
 20 53  1  0
 21 54  1  0
 21 55  1  0
 22 56  1  0
 22 57  1  0
 25 58  1  0
 26 59  1  0
 31 60  1  0
 32 61  1  0
 32 62  1  0
 33 63  1  0
 34 64  1  0
 35 65  1  0
 35 66  1  0
 36 67  1  0
 36 68  1  0
 37 69  1  0
 37 70  1  0
M  END
> <Name>
Molecule

> <AbsoluteEnergy>
75.0094

> <Clean Energy>
210.713

> <ConfNumber>
48

> <MOL_NUMBER>
1

> <RelativeEnergy>
11.706

> <POSE_NUMBER>
33

> <LibDockScore>
116.7752

> <HotSpots>
-5.93,-24.72,51.19,A,53,6
2.67,-22.92,49.98,A,39,18
-8.73,-28.12,54.38,A,70,32

$$$$
Molecule
  SciTegic05072616053D

 70 74  0  0  0  0            999 V2000
   -2.1247  -26.2278   45.8648 C   0  0  0  1  0  0
   -3.2904  -25.6318   46.6787 C   0  0  0  1  0  0
   -4.5868  -25.5682   45.8457 C   0  0  0  1  0  0
   -2.9361  -24.2887   47.2803 C   0  0  0  1  0  0
   -3.1830  -23.1945   46.4152 C   0  0  0  1  0  0
   -2.8936  -21.8783   46.7807 C   0  0  0  1  0  0
   -2.3439  -21.6194   48.0338 C   0  0  0  1  0  0
   -2.0994  -22.6781   48.9128 C   0  0  0  1  0  0
   -2.3908  -24.0322   48.5922 C   0  0  0  1  0  0
   -2.0549  -25.0171   49.7352 C   0  0  0  1  0  0
   -0.6982  -24.6212   50.3492 C   0  0  0  1  0  0
   -0.6385  -24.3044   51.5167 O   0  0  0  1  0  0
    0.4522  -24.6369   49.5725 N   0  0  0  1  0  0
    1.7232  -24.3158   50.0270 C   0  0  0  1  0  0
    2.5565  -23.4982   49.2351 C   0  0  0  1  0  0
    3.8443  -23.1615   49.6925 C   0  0  0  1  0  0
    4.3149  -23.6146   50.8878 N   0  0  0  1  0  0
    3.5319  -24.4164   51.6595 C   0  0  0  1  0  0
    2.2341  -24.7998   51.2598 C   0  0  0  1  0  0
    1.5225  -25.6121   52.0249 O   0  0  0  1  0  0
   -1.8594  -26.5486   49.4295 C   0  0  0  1  0  0
   -3.1475  -27.4022   49.3327 C   0  0  0  1  0  0
   -3.9427  -27.1692   50.5539 N   0  0  0  1  0  0
   -4.1127  -28.1153   51.5581 C   0  0  0  1  0  0
   -3.2586  -29.2394   51.6086 C   0  0  0  1  0  0
   -3.3515  -30.1639   52.6588 C   0  0  0  1  0  0
   -4.3051  -29.9843   53.6753 C   0  0  0  1  0  0
   -4.3483  -30.9479   54.8391 C   0  0  0  1  0  0
   -3.5108  -30.4703   56.0228 C   0  0  0  1  0  0
   -3.9333  -30.6175   57.1483 O   0  0  0  1  0  0
   -2.3257  -29.8987   55.7908 O   0  0  0  1  0  0
   -4.3863  -32.4419   54.5572 C   0  0  0  1  0  0
   -5.1972  -28.8990   53.6079 C   0  0  0  1  0  0
   -5.1052  -27.9731   52.5540 C   0  0  0  1  0  0
   -4.4122  -25.7721   50.6552 C   0  0  0  1  0  0
   -3.1624  -24.8983   50.8608 C   0  0  0  1  0  0
   -5.6175  -31.7495   55.0899 C   0  0  0  1  0  0
   -1.9621  -25.6068   44.9839 H   0  0
   -2.4019  -27.2320   45.5441 H   0  0
   -1.2185  -26.2645   46.4695 H   0  0
   -3.4768  -26.3068   47.5140 H   0  0
   -4.8443  -26.5777   45.5252 H   0  0
   -4.4046  -24.9525   44.9649 H   0  0
   -5.3984  -25.1446   46.4373 H   0  0
   -3.6129  -23.3863   45.4321 H   0  0
   -3.0964  -21.0595   46.0903 H   0  0
   -2.1057  -20.5970   48.3273 H   0  0
   -1.6659  -22.4557   49.8878 H   0  0
    0.3511  -24.9180   48.5451 H   0  0
    2.2042  -23.1284   48.2722 H   0  0
    4.4790  -22.5242   49.0767 H   0  0
    3.9185  -24.7729   52.6143 H   0  0
    1.2878  -26.4203   51.3970 H   0  0
   -1.3115  -26.6463   48.4923 H   0  0
   -1.2211  -26.9771   50.2022 H   0  0
   -3.7226  -27.1000   48.4575 H   0  0
   -2.8846  -28.4577   49.2624 H   0  0
   -2.5189  -29.3898   50.8222 H   0  0
   -2.6824  -31.0239   52.6868 H   0  0
   -2.5320  -29.0935   55.1492 H   0  0
   -3.8754  -33.0091   55.3353 H   0  0
   -4.4691  -32.6451   53.4895 H   0  0
   -5.9619  -28.7755   54.3748 H   0  0
   -5.8050  -27.1389   52.5046 H   0  0
   -5.0807  -25.6659   51.5095 H   0  0
   -4.9166  -25.4830   49.7332 H   0  0
   -3.4767  -23.8571   50.9330 H   0  0
   -2.7135  -25.1570   51.8198 H   0  0
   -6.3567  -31.5837   54.3061 H   0  0
   -5.7621  -31.9464   56.1522 H   0  0
  1  2  1  0
  2  3  1  0
  2  4  1  0
  4  5  2  0
  4  9  1  0
  5  6  1  0
  6  7  2  0
  7  8  1  0
  8  9  2  0
  9 10  1  0
 10 11  1  0
 10 21  1  0
 10 36  1  0
 11 12  2  0
 11 13  1  0
 13 14  1  0
 14 15  2  0
 14 19  1  0
 15 16  1  0
 16 17  2  0
 17 18  1  0
 18 19  2  0
 19 20  1  0
 21 22  1  0
 22 23  1  0
 23 24  1  0
 23 35  1  0
 24 25  2  0
 24 34  1  0
 25 26  1  0
 26 27  2  0
 27 28  1  0
 27 33  1  0
 28 29  1  0
 28 32  1  0
 28 37  1  0
 29 30  2  0
 29 31  1  0
 32 37  1  0
 33 34  2  0
 35 36  1  0
  1 38  1  0
  1 39  1  0
  1 40  1  0
  2 41  1  0
  3 42  1  0
  3 43  1  0
  3 44  1  0
  5 45  1  0
  6 46  1  0
  7 47  1  0
  8 48  1  0
 13 49  1  0
 15 50  1  0
 16 51  1  0
 18 52  1  0
 20 53  1  0
 21 54  1  0
 21 55  1  0
 22 56  1  0
 22 57  1  0
 25 58  1  0
 26 59  1  0
 31 60  1  0
 32 61  1  0
 32 62  1  0
 33 63  1  0
 34 64  1  0
 35 65  1  0
 35 66  1  0
 36 67  1  0
 36 68  1  0
 37 69  1  0
 37 70  1  0
M  END
> <Name>
Molecule

> <AbsoluteEnergy>
80.3582

> <Clean Energy>
210.713

> <ConfNumber>
85

> <MOL_NUMBER>
1

> <RelativeEnergy>
17.0548

> <POSE_NUMBER>
34

> <LibDockScore>
115.6682

> <HotSpots>
-2.93,-26.32,45.98,A,15,3
2.67,-22.92,49.98,A,39,15
-4.13,-30.52,57.38,P,71,30

$$$$
Molecule
  SciTegic05072616053D

 70 74  0  0  0  0            999 V2000
   -1.2685  -26.6937   48.6502 C   0  0  0  1  0  0
   -0.6126  -25.3370   48.9205 C   0  0  0  1  0  0
   -1.4876  -24.1600   48.4556 C   0  0  0  1  0  0
    0.0780  -25.1194   50.2655 C   0  0  0  1  0  0
    1.3612  -24.5266   50.1477 C   0  0  0  1  0  0
    2.1659  -24.2618   51.2565 C   0  0  0  1  0  0
    1.7046  -24.5830   52.5292 C   0  0  0  1  0  0
    0.4395  -25.1562   52.6872 C   0  0  0  1  0  0
   -0.4203  -25.4327   51.5863 C   0  0  0  1  0  0
   -1.8051  -26.0372   51.8991 C   0  0  0  1  0  0
   -2.9238  -25.4094   51.0528 C   0  0  0  1  0  0
   -3.5909  -26.1161   50.3278 O   0  0  0  1  0  0
   -3.1785  -24.0443   51.1292 N   0  0  0  1  0  0
   -4.3907  -23.4441   50.8257 C   0  0  0  1  0  0
   -4.3897  -22.2111   50.1433 C   0  0  0  1  0  0
   -5.6075  -21.6048   49.7886 C   0  0  0  1  0  0
   -6.8039  -22.1786   50.0972 N   0  0  0  1  0  0
   -6.8277  -23.3562   50.7809 C   0  0  0  1  0  0
   -5.6407  -24.0110   51.1774 C   0  0  0  1  0  0
   -5.7023  -25.1250   51.8830 O   0  0  0  1  0  0
   -1.7403  -27.6116   51.8134 C   0  0  0  1  0  0
   -2.4633  -28.3945   52.9319 C   0  0  0  1  0  0
   -3.7792  -27.7658   53.2020 N   0  0  0  1  0  0
   -4.9749  -28.4425   52.9895 C   0  0  0  1  0  0
   -5.0017  -29.8464   52.8211 C   0  0  0  1  0  0
   -6.2138  -30.5161   52.5654 C   0  0  0  1  0  0
   -7.4170  -29.7920   52.4759 C   0  0  0  1  0  0
   -8.7236  -30.4919   52.1714 C   0  0  0  1  0  0
   -9.6893  -30.5105   53.3566 C   0  0  0  1  0  0
   -9.8287  -29.4910   53.9930 O   0  0  0  1  0  0
  -10.3643  -31.6202   53.6777 O   0  0  0  1  0  0
   -8.7360  -31.6050   51.1319 C   0  0  0  1  0  0
   -7.4013  -28.3982   52.6692 C   0  0  0  1  0  0
   -6.1931  -27.7326   52.9211 C   0  0  0  1  0  0
   -3.7126  -26.3472   53.6614 C   0  0  0  1  0  0
   -2.3247  -25.7261   53.3540 C   0  0  0  1  0  0
   -9.3370  -30.2635   50.7969 C   0  0  0  1  0  0
   -1.4525  -26.7757   47.5790 H   0  0
   -2.2246  -26.7200   49.1730 H   0  0
   -0.6280  -27.5081   48.9889 H   0  0
    0.2643  -25.3713   48.2740 H   0  0
   -2.4411  -24.2161   48.9807 H   0  0
   -1.6690  -24.2717   47.3866 H   0  0
   -0.9970  -23.2084   48.6600 H   0  0
    1.7319  -24.2687   49.1557 H   0  0
    3.1479  -23.8070   51.1266 H   0  0
    2.3285  -24.3880   53.4014 H   0  0
    0.0977  -25.4012   53.6928 H   0  0
   -2.3780  -23.4090   51.4463 H   0  0
   -3.4458  -21.7280   49.8908 H   0  0
   -5.5941  -20.6545   49.2548 H   0  0
   -7.7892  -23.8057   51.0289 H   0  0
   -5.1510  -24.9164   52.7519 H   0  0
   -0.6934  -27.9148   51.8047 H   0  0
   -2.1549  -27.9223   50.8544 H   0  0
   -1.8593  -28.3758   53.8390 H   0  0
   -2.6124  -29.4268   52.6152 H   0  0
   -4.0748  -30.4158   52.8899 H   0  0
   -6.2200  -31.5984   52.4364 H   0  0
   -9.6172  -32.3458   53.8110 H   0  0
   -9.5038  -32.3472   51.3503 H   0  0
   -7.7556  -31.7333   50.6730 H   0  0
   -8.3325  -27.8335   52.6229 H   0  0
   -6.1946  -26.6523   53.0661 H   0  0
   -3.8935  -26.3077   54.7356 H   0  0
   -4.4850  -25.7689   53.1544 H   0  0
   -2.3859  -24.6457   53.4849 H   0  0
   -1.6016  -26.1053   54.0761 H   0  0
   -8.6783  -29.6753   50.1579 H   0  0
  -10.4260  -30.2886   50.8367 H   0  0
  1  2  1  0
  2  3  1  0
  2  4  1  0
  4  5  2  0
  4  9  1  0
  5  6  1  0
  6  7  2  0
  7  8  1  0
  8  9  2  0
  9 10  1  0
 10 11  1  0
 10 21  1  0
 10 36  1  0
 11 12  2  0
 11 13  1  0
 13 14  1  0
 14 15  2  0
 14 19  1  0
 15 16  1  0
 16 17  2  0
 17 18  1  0
 18 19  2  0
 19 20  1  0
 21 22  1  0
 22 23  1  0
 23 24  1  0
 23 35  1  0
 24 25  2  0
 24 34  1  0
 25 26  1  0
 26 27  2  0
 27 28  1  0
 27 33  1  0
 28 29  1  0
 28 32  1  0
 28 37  1  0
 29 30  2  0
 29 31  1  0
 32 37  1  0
 33 34  2  0
 35 36  1  0
  1 38  1  0
  1 39  1  0
  1 40  1  0
  2 41  1  0
  3 42  1  0
  3 43  1  0
  3 44  1  0
  5 45  1  0
  6 46  1  0
  7 47  1  0
  8 48  1  0
 13 49  1  0
 15 50  1  0
 16 51  1  0
 18 52  1  0
 20 53  1  0
 21 54  1  0
 21 55  1  0
 22 56  1  0
 22 57  1  0
 25 58  1  0
 26 59  1  0
 31 60  1  0
 32 61  1  0
 32 62  1  0
 33 63  1  0
 34 64  1  0
 35 65  1  0
 35 66  1  0
 36 67  1  0
 36 68  1  0
 37 69  1  0
 37 70  1  0
M  END
> <Name>
Molecule

> <AbsoluteEnergy>
80.3755

> <Clean Energy>
210.713

> <ConfNumber>
86

> <MOL_NUMBER>
1

> <RelativeEnergy>
17.0721

> <POSE_NUMBER>
35

> <LibDockScore>
113.706

> <HotSpots>
2.27,-24.92,52.19,A,58,7
-3.33,-21.92,50.38,A,47,15
-8.53,-31.32,51.19,A,51,32

$$$$
Molecule
  SciTegic05072616053D

 70 74  0  0  0  0            999 V2000
   -1.8145  -29.1194   53.5818 C   0  0  0  1  0  0
   -3.0593  -29.2781   54.4855 C   0  0  0  1  0  0
   -2.6675  -29.1193   55.9678 C   0  0  0  1  0  0
   -3.8082  -30.5729   54.2522 C   0  0  0  1  0  0
   -3.2329  -31.6933   54.9001 C   0  0  0  1  0  0
   -3.8269  -32.9559   54.8642 C   0  0  0  1  0  0
   -5.0358  -33.1251   54.1951 C   0  0  0  1  0  0
   -5.6213  -32.0393   53.5360 C   0  0  0  1  0  0
   -5.0165  -30.7532   53.4799 C   0  0  0  1  0  0
   -5.7707  -29.7248   52.5995 C   0  0  0  1  0  0
   -7.2759  -29.9976   52.6873 C   0  0  0  1  0  0
   -7.9150  -30.1175   51.6656 O   0  0  0  1  0  0
   -7.8850  -30.1058   53.9302 N   0  0  0  1  0  0
   -9.2063  -30.4605   54.1983 C   0  0  0  1  0  0
  -10.2346  -30.3503   53.2321 C   0  0  0  1  0  0
  -11.5501  -30.7291   53.5538 C   0  0  0  1  0  0
  -11.8734  -31.1920   54.7917 N   0  0  0  1  0  0
  -10.9070  -31.2958   55.7436 C   0  0  0  1  0  0
   -9.5638  -30.9396   55.4863 C   0  0  0  1  0  0
   -8.6561  -31.0584   56.4409 O   0  0  0  1  0  0
   -5.3162  -29.8487   51.1007 C   0  0  0  1  0  0
   -3.8350  -29.4985   50.8673 C   0  0  0  1  0  0
   -3.5053  -28.1280   51.3587 N   0  0  0  1  0  0
   -2.6748  -27.2783   50.6325 C   0  0  0  1  0  0
   -2.2728  -27.6241   49.3205 C   0  0  0  1  0  0
   -1.4140  -26.7882   48.5888 C   0  0  0  1  0  0
   -0.9387  -25.5934   49.1541 C   0  0  0  1  0  0
    0.0106  -24.7174   48.3725 C   0  0  0  1  0  0
    1.4065  -25.3149   48.2708 C   0  0  0  1  0  0
    1.6627  -26.0465   47.3411 O   0  0  0  1  0  0
    2.3087  -25.0212   49.2048 O   0  0  0  1  0  0
   -0.1367  -23.2055   48.4418 C   0  0  0  1  0  0
   -1.3450  -25.2272   50.4492 C   0  0  0  1  0  0
   -2.2104  -26.0592   51.1799 C   0  0  0  1  0  0
   -4.0871  -27.7388   52.6793 C   0  0  0  1  0  0
   -5.5509  -28.1986   52.8321 C   0  0  0  1  0  0
   -0.5173  -23.9383   47.1785 C   0  0  0  1  0  0
   -1.0804  -29.8801   53.8473 H   0  0
   -1.3815  -28.1316   53.7395 H   0  0
   -2.0991  -29.2329   52.5358 H   0  0
   -3.7513  -28.4816   54.2119 H   0  0
   -2.2321  -28.1315   56.1189 H   0  0
   -1.9310  -29.8800   56.2266 H   0  0
   -3.5494  -29.2323   56.5984 H   0  0
   -2.2969  -31.5656   55.4438 H   0  0
   -3.3480  -33.8025   55.3561 H   0  0
   -5.5240  -34.0996   54.1849 H   0  0
   -6.5829  -32.1851   53.0439 H   0  0
   -7.2700  -29.8926   54.7794 H   0  0
  -10.0063  -29.9709   52.2361 H   0  0
  -12.3281  -30.6501   52.7945 H   0  0
  -11.1765  -31.6644   56.7334 H   0  0
   -8.2355  -30.0999   56.5236 H   0  0
   -5.4929  -30.8696   50.7621 H   0  0
   -5.9328  -29.1902   50.4889 H   0  0
   -3.2095  -30.2238   51.3876 H   0  0
   -3.6162  -29.5569   49.8011 H   0  0
   -2.6340  -28.5500   48.8728 H   0  0
   -1.1151  -27.0675   47.5785 H   0  0
    1.8626  -25.3044   50.1122 H   0  0
    0.8262  -22.7046   48.3417 H   0  0
   -1.0147  -22.9157   49.0190 H   0  0
   -0.9878  -24.2954   50.8878 H   0  0
   -2.5273  -25.7619   52.1795 H   0  0
   -4.0421  -26.6547   52.7834 H   0  0
   -3.4897  -28.1824   53.4758 H   0  0
   -5.8953  -27.9419   53.8339 H   0  0
   -6.1677  -27.6433   52.1255 H   0  0
   -1.5984  -24.0382   47.0816 H   0  0
    0.2429  -23.8286   46.4051 H   0  0
  1  2  1  0
  2  3  1  0
  2  4  1  0
  4  5  2  0
  4  9  1  0
  5  6  1  0
  6  7  2  0
  7  8  1  0
  8  9  2  0
  9 10  1  0
 10 11  1  0
 10 21  1  0
 10 36  1  0
 11 12  2  0
 11 13  1  0
 13 14  1  0
 14 15  2  0
 14 19  1  0
 15 16  1  0
 16 17  2  0
 17 18  1  0
 18 19  2  0
 19 20  1  0
 21 22  1  0
 22 23  1  0
 23 24  1  0
 23 35  1  0
 24 25  2  0
 24 34  1  0
 25 26  1  0
 26 27  2  0
 27 28  1  0
 27 33  1  0
 28 29  1  0
 28 32  1  0
 28 37  1  0
 29 30  2  0
 29 31  1  0
 32 37  1  0
 33 34  2  0
 35 36  1  0
  1 38  1  0
  1 39  1  0
  1 40  1  0
  2 41  1  0
  3 42  1  0
  3 43  1  0
  3 44  1  0
  5 45  1  0
  6 46  1  0
  7 47  1  0
  8 48  1  0
 13 49  1  0
 15 50  1  0
 16 51  1  0
 18 52  1  0
 20 53  1  0
 21 54  1  0
 21 55  1  0
 22 56  1  0
 22 57  1  0
 25 58  1  0
 26 59  1  0
 31 60  1  0
 32 61  1  0
 32 62  1  0
 33 63  1  0
 34 64  1  0
 35 65  1  0
 35 66  1  0
 36 67  1  0
 36 68  1  0
 37 69  1  0
 37 70  1  0
M  END
> <Name>
Molecule

> <AbsoluteEnergy>
72.2621

> <Clean Energy>
210.713

> <ConfNumber>
32

> <MOL_NUMBER>
1

> <RelativeEnergy>
8.95878

> <POSE_NUMBER>
36

> <LibDockScore>
113.0007

> <HotSpots>
-4.13,-31.12,56.59,A,79,5
-4.33,-32.92,55.19,A,75,7
-10.93,-30.92,53.98,A,68,15

$$$$
Molecule
  SciTegic05072616053D

 70 74  0  0  0  0            999 V2000
   -0.6994  -22.8532   47.9759 C   0  0  0  1  0  0
   -0.3213  -24.2787   48.4248 C   0  0  0  1  0  0
    0.1940  -25.1196   47.2455 C   0  0  0  1  0  0
    0.6610  -24.2642   49.5749 C   0  0  0  1  0  0
    1.9422  -23.7380   49.2974 C   0  0  0  1  0  0
    2.9282  -23.6686   50.2852 C   0  0  0  1  0  0
    2.6501  -24.1256   51.5739 C   0  0  0  1  0  0
    1.3897  -24.6509   51.8725 C   0  0  0  1  0  0
    0.3631  -24.7408   50.8933 C   0  0  0  1  0  0
   -1.0084  -25.3340   51.2657 C   0  0  0  1  0  0
   -2.0675  -24.2138   51.2569 C   0  0  0  1  0  0
   -1.6892  -23.0620   51.1846 O   0  0  0  1  0  0
   -3.4296  -24.4821   51.3186 N   0  0  0  1  0  0
   -4.4501  -23.6419   50.8967 C   0  0  0  1  0  0
   -4.1823  -22.4345   50.2139 C   0  0  0  1  0  0
   -5.2456  -21.6188   49.7854 C   0  0  0  1  0  0
   -6.5418  -21.9652   50.0197 N   0  0  0  1  0  0
   -6.8215  -23.1247   50.6794 C   0  0  0  1  0  0
   -5.8038  -23.9880   51.1365 C   0  0  0  1  0  0
   -6.1129  -25.1023   51.7858 O   0  0  0  1  0  0
   -1.2540  -26.5531   50.3234 C   0  0  0  1  0  0
   -2.4083  -27.5296   50.6639 C   0  0  0  1  0  0
   -2.9880  -27.4485   52.0438 N   0  0  0  1  0  0
   -4.1570  -28.1421   52.3225 C   0  0  0  1  0  0
   -4.2149  -29.1060   53.3531 C   0  0  0  1  0  0
   -5.3959  -29.8433   53.5774 C   0  0  0  1  0  0
   -6.5354  -29.6162   52.7806 C   0  0  0  1  0  0
   -7.7862  -30.4536   52.9646 C   0  0  0  1  0  0
   -7.9679  -31.5560   51.9065 C   0  0  0  1  0  0
   -9.0919  -31.9087   51.6208 O   0  0  0  1  0  0
   -6.9045  -32.1190   51.3028 O   0  0  0  1  0  0
   -8.2666  -30.7224   54.3829 C   0  0  0  1  0  0
   -6.4976  -28.6141   51.7913 C   0  0  0  1  0  0
   -5.3183  -27.8869   51.5605 C   0  0  0  1  0  0
   -2.3634  -26.6079   53.1040 C   0  0  0  1  0  0
   -1.0311  -25.9639   52.6912 C   0  0  0  1  0  0
   -9.0357  -29.7721   53.4991 C   0  0  0  1  0  0
   -1.4733  -22.9219   47.2114 H   0  0
    0.1822  -22.3773   47.5465 H   0  0
   -1.0621  -22.2723   48.8239 H   0  0
   -1.2307  -24.7550   48.7912 H   0  0
    1.0689  -24.6267   46.8216 H   0  0
   -0.5866  -25.1713   46.4865 H   0  0
    0.4562  -26.1230   47.5810 H   0  0
    2.1662  -23.3790   48.2929 H   0  0
    3.9106  -23.2591   50.0499 H   0  0
    3.4158  -24.0730   52.3478 H   0  0
    1.1883  -25.0015   52.8847 H   0  0
   -3.7189  -25.4263   51.7306 H   0  0
   -3.1525  -22.1350   50.0191 H   0  0
   -5.0277  -20.6915   49.2556 H   0  0
   -7.8626  -23.3929   50.8591 H   0  0
   -5.5999  -25.0260   52.6987 H   0  0
   -1.4196  -26.1737   49.3151 H   0  0
   -0.3307  -27.1296   50.2663 H   0  0
   -2.0564  -28.5485   50.5023 H   0  0
   -3.2139  -27.3725   49.9467 H   0  0
   -3.3404  -29.2813   53.9797 H   0  0
   -5.4272  -30.5912   54.3697 H   0  0
   -6.3174  -32.4754   52.0970 H   0  0
   -7.6628  -30.1895   55.1174 H   0  0
   -8.7617  -31.6904   54.4601 H   0  0
   -7.3891  -28.4017   51.2012 H   0  0
   -5.2993  -27.1193   50.7869 H   0  0
   -2.1965  -27.2237   53.9878 H   0  0
   -3.0626  -25.8198   53.3835 H   0  0
   -0.7796  -25.1917   53.4182 H   0  0
   -0.2477  -26.7195   52.7506 H   0  0
   -9.9420  -30.2326   53.1058 H   0  0
   -8.8422  -28.7321   53.7619 H   0  0
  1  2  1  0
  2  3  1  0
  2  4  1  0
  4  5  2  0
  4  9  1  0
  5  6  1  0
  6  7  2  0
  7  8  1  0
  8  9  2  0
  9 10  1  0
 10 11  1  0
 10 21  1  0
 10 36  1  0
 11 12  2  0
 11 13  1  0
 13 14  1  0
 14 15  2  0
 14 19  1  0
 15 16  1  0
 16 17  2  0
 17 18  1  0
 18 19  2  0
 19 20  1  0
 21 22  1  0
 22 23  1  0
 23 24  1  0
 23 35  1  0
 24 25  2  0
 24 34  1  0
 25 26  1  0
 26 27  2  0
 27 28  1  0
 27 33  1  0
 28 29  1  0
 28 32  1  0
 28 37  1  0
 29 30  2  0
 29 31  1  0
 32 37  1  0
 33 34  2  0
 35 36  1  0
  1 38  1  0
  1 39  1  0
  1 40  1  0
  2 41  1  0
  3 42  1  0
  3 43  1  0
  3 44  1  0
  5 45  1  0
  6 46  1  0
  7 47  1  0
  8 48  1  0
 13 49  1  0
 15 50  1  0
 16 51  1  0
 18 52  1  0
 20 53  1  0
 21 54  1  0
 21 55  1  0
 22 56  1  0
 22 57  1  0
 25 58  1  0
 26 59  1  0
 31 60  1  0
 32 61  1  0
 32 62  1  0
 33 63  1  0
 34 64  1  0
 35 65  1  0
 35 66  1  0
 36 67  1  0
 36 68  1  0
 37 69  1  0
 37 70  1  0
M  END
> <Name>
Molecule

> <AbsoluteEnergy>
73.7847

> <Clean Energy>
210.713

> <ConfNumber>
41

> <MOL_NUMBER>
1

> <RelativeEnergy>
10.4813

> <POSE_NUMBER>
37

> <LibDockScore>
112.8688

> <HotSpots>
0.27,-24.92,46.38,A,19,3
3.07,-24.52,50.38,A,43,7
-6.53,-23.32,50.38,A,45,18

$$$$
Molecule
  SciTegic05072616053D

 70 74  0  0  0  0            999 V2000
   -2.7710  -29.0582   50.1475 C   0  0  0  1  0  0
   -2.8044  -27.6696   49.4819 C   0  0  0  1  0  0
   -2.3166  -27.7978   48.0199 C   0  0  0  1  0  0
   -2.0956  -26.6334   50.3319 C   0  0  0  1  0  0
   -0.9139  -26.0606   49.7929 C   0  0  0  1  0  0
   -0.1447  -25.1416   50.5089 C   0  0  0  1  0  0
   -0.5293  -24.7778   51.7964 C   0  0  0  1  0  0
   -1.6955  -25.3140   52.3504 C   0  0  0  1  0  0
   -2.5378  -26.2128   51.6411 C   0  0  0  1  0  0
   -3.8307  -26.6479   52.3893 C   0  0  0  1  0  0
   -3.4982  -27.8860   53.2421 C   0  0  0  1  0  0
   -2.3436  -28.1238   53.5251 O   0  0  0  1  0  0
   -4.5027  -28.7347   53.6849 N   0  0  0  1  0  0
   -4.3199  -29.9592   54.3150 C   0  0  0  1  0  0
   -5.0243  -31.0824   53.8292 C   0  0  0  1  0  0
   -4.8433  -32.3405   54.4324 C   0  0  0  1  0  0
   -4.0008  -32.5069   55.4879 N   0  0  0  1  0  0
   -3.3254  -31.4338   55.9856 C   0  0  0  1  0  0
   -3.4694  -30.1409   55.4382 C   0  0  0  1  0  0
   -2.8277  -29.1211   55.9841 O   0  0  0  1  0  0
   -5.1116  -26.9334   51.5248 C   0  0  0  1  0  0
   -5.7223  -25.7024   50.7891 C   0  0  0  1  0  0
   -4.9191  -24.4756   51.0678 N   0  0  0  1  0  0
   -4.2288  -23.7718   50.0742 C   0  0  0  1  0  0
   -3.1907  -22.8708   50.4146 C   0  0  0  1  0  0
   -2.3697  -22.3116   49.4267 C   0  0  0  1  0  0
   -2.5719  -22.6364   48.0770 C   0  0  0  1  0  0
   -1.5808  -22.1697   47.0428 C   0  0  0  1  0  0
   -0.3922  -23.1196   46.9582 C   0  0  0  1  0  0
   -0.5145  -24.1696   46.3726 O   0  0  0  1  0  0
    0.7578  -22.7884   47.5459 O   0  0  0  1  0  0
   -1.3300  -20.6823   46.8587 C   0  0  0  1  0  0
   -3.6784  -23.4189   47.7100 C   0  0  0  1  0  0
   -4.5090  -23.9698   48.7001 C   0  0  0  1  0  0
   -4.8091  -24.1965   52.5307 C   0  0  0  1  0  0
   -4.3626  -25.4699   53.3005 C   0  0  0  1  0  0
   -2.0623  -21.4570   45.7888 C   0  0  0  1  0  0
   -1.7523  -29.4457   50.1383 H   0  0
   -3.4255  -29.7412   49.6059 H   0  0
   -3.1142  -28.9726   51.1785 H   0  0
   -3.8238  -27.2883   49.4218 H   0  0
   -2.9699  -28.4775   47.4728 H   0  0
   -1.2967  -28.1820   48.0051 H   0  0
   -2.3386  -26.8171   47.5447 H   0  0
   -0.5976  -26.3469   48.7899 H   0  0
    0.7518  -24.7114   50.0624 H   0  0
    0.0768  -24.0772   52.3707 H   0  0
   -1.9698  -25.0316   53.3668 H   0  0
   -5.5119  -28.4164   53.5263 H   0  0
   -5.7080  -30.9748   52.9872 H   0  0
   -5.3899  -33.2007   54.0458 H   0  0
   -2.6537  -31.5779   56.8319 H   0  0
   -3.5862  -28.4349   56.2213 H   0  0
   -5.8771  -27.3651   52.1695 H   0  0
   -4.8667  -27.6931   50.7825 H   0  0
   -6.7458  -25.5476   51.1305 H   0  0
   -5.7308  -25.8910   49.7156 H   0  0
   -3.0281  -22.6086   51.4600 H   0  0
   -1.5726  -21.6231   49.7072 H   0  0
    0.5064  -22.6167   48.5508 H   0  0
   -0.2969  -20.4825   46.5744 H   0  0
   -2.0136  -20.0840   47.4610 H   0  0
   -3.8930  -23.5990   46.6566 H   0  0
   -5.3796  -24.5567   48.4072 H   0  0
   -5.7770  -23.8680   52.9095 H   0  0
   -4.0787  -23.4037   52.6922 H   0  0
   -3.5803  -25.1926   54.0070 H   0  0
   -5.2054  -25.8351   53.8873 H   0  0
   -3.1358  -21.2710   45.8214 H   0  0
   -1.4187  -21.6710   44.9355 H   0  0
  1  2  1  0
  2  3  1  0
  2  4  1  0
  4  5  2  0
  4  9  1  0
  5  6  1  0
  6  7  2  0
  7  8  1  0
  8  9  2  0
  9 10  1  0
 10 11  1  0
 10 21  1  0
 10 36  1  0
 11 12  2  0
 11 13  1  0
 13 14  1  0
 14 15  2  0
 14 19  1  0
 15 16  1  0
 16 17  2  0
 17 18  1  0
 18 19  2  0
 19 20  1  0
 21 22  1  0
 22 23  1  0
 23 24  1  0
 23 35  1  0
 24 25  2  0
 24 34  1  0
 25 26  1  0
 26 27  2  0
 27 28  1  0
 27 33  1  0
 28 29  1  0
 28 32  1  0
 28 37  1  0
 29 30  2  0
 29 31  1  0
 32 37  1  0
 33 34  2  0
 35 36  1  0
  1 38  1  0
  1 39  1  0
  1 40  1  0
  2 41  1  0
  3 42  1  0
  3 43  1  0
  3 44  1  0
  5 45  1  0
  6 46  1  0
  7 47  1  0
  8 48  1  0
 13 49  1  0
 15 50  1  0
 16 51  1  0
 18 52  1  0
 20 53  1  0
 21 54  1  0
 21 55  1  0
 22 56  1  0
 22 57  1  0
 25 58  1  0
 26 59  1  0
 31 60  1  0
 32 61  1  0
 32 62  1  0
 33 63  1  0
 34 64  1  0
 35 65  1  0
 35 66  1  0
 36 67  1  0
 36 68  1  0
 37 69  1  0
 37 70  1  0
M  END
> <Name>
Molecule

> <AbsoluteEnergy>
82.0622

> <Clean Energy>
210.713

> <ConfNumber>
100

> <MOL_NUMBER>
1

> <RelativeEnergy>
18.7588

> <POSE_NUMBER>
38

> <LibDockScore>
112.7202

> <HotSpots>
-1.93,-29.12,49.19,A,34,1
-3.33,-32.52,56.19,P,67,17
-2.53,-21.12,45.98,A,16,37

$$$$
Molecule
  SciTegic05072616053D

 70 74  0  0  0  0            999 V2000
    0.6685  -25.3729   47.7235 C   0  0  0  1  0  0
    0.0233  -24.5286   48.8371 C   0  0  0  1  0  0
   -0.1557  -23.0687   48.3620 C   0  0  0  1  0  0
    0.8030  -24.6190   50.1311 C   0  0  0  1  0  0
    2.1501  -24.1960   50.0789 C   0  0  0  1  0  0
    2.9583  -24.1834   51.2184 C   0  0  0  1  0  0
    2.4324  -24.6055   52.4392 C   0  0  0  1  0  0
    1.1044  -25.0543   52.5147 C   0  0  0  1  0  0
    0.2579  -25.0989   51.3711 C   0  0  0  1  0  0
   -1.1818  -25.6442   51.4933 C   0  0  0  1  0  0
   -2.1797  -24.4984   51.2412 C   0  0  0  1  0  0
   -1.8514  -23.3663   51.5314 O   0  0  0  1  0  0
   -3.4260  -24.7466   50.6896 N   0  0  0  1  0  0
   -4.4665  -23.8501   50.4896 C   0  0  0  1  0  0
   -5.7751  -24.3416   50.6994 C   0  0  0  1  0  0
   -6.8787  -23.4816   50.5819 C   0  0  0  1  0  0
   -6.7257  -22.1726   50.2444 N   0  0  0  1  0  0
   -5.4771  -21.6848   49.9979 C   0  0  0  1  0  0
   -4.3233  -22.4900   50.0843 C   0  0  0  1  0  0
   -3.1727  -21.9295   49.7567 O   0  0  0  1  0  0
   -1.3067  -26.8939   50.5588 C   0  0  0  1  0  0
   -2.4931  -27.8781   50.7427 C   0  0  0  1  0  0
   -3.3175  -27.7379   51.9820 N   0  0  0  1  0  0
   -4.4981  -28.4629   52.0878 C   0  0  0  1  0  0
   -4.4923  -29.8517   52.3447 C   0  0  0  1  0  0
   -5.7015  -30.5730   52.3976 C   0  0  0  1  0  0
   -6.9347  -29.9216   52.1941 C   0  0  0  1  0  0
   -8.2295  -30.7305   52.2097 C   0  0  0  1  0  0
   -8.1890  -32.0231   51.3799 C   0  0  0  1  0  0
   -7.1745  -32.3119   50.7855 O   0  0  0  1  0  0
   -9.2710  -32.8150   51.3192 O   0  0  0  1  0  0
   -9.5705  -30.0127   52.3056 C   0  0  0  1  0  0
   -6.9404  -28.5260   51.9744 C   0  0  0  1  0  0
   -5.7345  -27.8041   51.9302 C   0  0  0  1  0  0
   -2.9111  -26.8163   53.0766 C   0  0  0  1  0  0
   -1.5027  -26.2166   52.9071 C   0  0  0  1  0  0
   -9.0302  -30.7548   53.5031 C   0  0  0  1  0  0
    1.6414  -24.9510   47.4711 H   0  0
    0.0281  -25.3537   46.8417 H   0  0
    0.7922  -26.4009   48.0641 H   0  0
   -0.9656  -24.9348   49.0496 H   0  0
   -0.7944  -23.0543   47.4788 H   0  0
    0.8189  -22.6517   48.1083 H   0  0
   -0.6128  -22.4759   49.1543 H   0  0
    2.5690  -23.8716   49.1263 H   0  0
    3.9927  -23.8460   51.1538 H   0  0
    3.0529  -24.5869   53.3352 H   0  0
    0.7097  -25.3783   53.4777 H   0  0
   -3.6091  -25.7541   50.3793 H   0  0
   -5.9278  -25.3906   50.9530 H   0  0
   -7.8800  -23.8713   50.7651 H   0  0
   -5.3669  -20.6354   49.7244 H   0  0
   -2.8090  -22.5638   49.0031 H   0  0
   -1.3239  -26.5404   49.5279 H   0  0
   -0.3831  -27.4671   50.6398 H   0  0
   -2.1042  -28.8958   50.7076 H   0  0
   -3.1551  -27.7816   49.8822 H   0  0
   -3.5460  -30.3690   52.5031 H   0  0
   -5.6831  -31.6443   52.5977 H   0  0
  -10.0388  -32.1887   50.9719 H   0  0
  -10.3606  -30.5740   51.8069 H   0  0
   -9.4398  -28.9353   52.4068 H   0  0
   -7.8877  -28.0044   51.8380 H   0  0
   -5.7559  -26.7257   51.7727 H   0  0
   -2.9509  -27.3560   54.0228 H   0  0
   -3.6341  -26.0028   53.1358 H   0  0
   -1.3743  -25.4221   53.6422 H   0  0
   -0.7680  -26.9856   53.1457 H   0  0
   -8.6134  -30.0732   54.2446 H   0  0
   -9.5325  -31.7118   53.6440 H   0  0
  1  2  1  0
  2  3  1  0
  2  4  1  0
  4  5  2  0
  4  9  1  0
  5  6  1  0
  6  7  2  0
  7  8  1  0
  8  9  2  0
  9 10  1  0
 10 11  1  0
 10 21  1  0
 10 36  1  0
 11 12  2  0
 11 13  1  0
 13 14  1  0
 14 15  2  0
 14 19  1  0
 15 16  1  0
 16 17  2  0
 17 18  1  0
 18 19  2  0
 19 20  1  0
 21 22  1  0
 22 23  1  0
 23 24  1  0
 23 35  1  0
 24 25  2  0
 24 34  1  0
 25 26  1  0
 26 27  2  0
 27 28  1  0
 27 33  1  0
 28 29  1  0
 28 32  1  0
 28 37  1  0
 29 30  2  0
 29 31  1  0
 32 37  1  0
 33 34  2  0
 35 36  1  0
  1 38  1  0
  1 39  1  0
  1 40  1  0
  2 41  1  0
  3 42  1  0
  3 43  1  0
  3 44  1  0
  5 45  1  0
  6 46  1  0
  7 47  1  0
  8 48  1  0
 13 49  1  0
 15 50  1  0
 16 51  1  0
 18 52  1  0
 20 53  1  0
 21 54  1  0
 21 55  1  0
 22 56  1  0
 22 57  1  0
 25 58  1  0
 26 59  1  0
 31 60  1  0
 32 61  1  0
 32 62  1  0
 33 63  1  0
 34 64  1  0
 35 65  1  0
 35 66  1  0
 36 67  1  0
 36 68  1  0
 37 69  1  0
 37 70  1  0
M  END
> <Name>
Molecule

> <AbsoluteEnergy>
78.2058

> <Clean Energy>
210.713

> <ConfNumber>
71

> <MOL_NUMBER>
1

> <RelativeEnergy>
14.9025

> <POSE_NUMBER>
39

> <LibDockScore>
112.1077

> <HotSpots>
3.07,-24.52,50.38,A,43,6
-6.53,-23.32,50.38,A,45,16
-9.53,-30.12,52.78,A,62,32

$$$$
Molecule
  SciTegic05072616053D

 70 74  0  0  0  0            999 V2000
   -3.0772  -25.0761   46.2855 C   0  0  0  1  0  0
   -2.6271  -23.9739   47.2622 C   0  0  0  1  0  0
   -3.1006  -22.5814   46.8063 C   0  0  0  1  0  0
   -1.1369  -24.0029   47.5159 C   0  0  0  1  0  0
   -0.3308  -23.2482   46.6350 C   0  0  0  1  0  0
    1.0604  -23.2102   46.7739 C   0  0  0  1  0  0
    1.6725  -23.9304   47.8024 C   0  0  0  1  0  0
    0.8930  -24.6846   48.6909 C   0  0  0  1  0  0
   -0.5216  -24.7398   48.5798 C   0  0  0  1  0  0
   -1.3411  -25.5706   49.5766 C   0  0  0  1  0  0
   -2.4266  -24.6819   50.2188 C   0  0  0  1  0  0
   -2.0596  -23.7171   50.8511 O   0  0  0  1  0  0
   -3.7777  -24.9865   50.0932 N   0  0  0  1  0  0
   -4.8904  -24.1541   50.1927 C   0  0  0  1  0  0
   -6.1240  -24.7767   50.4951 C   0  0  0  1  0  0
   -7.2812  -24.0091   50.6954 C   0  0  0  1  0  0
   -7.2538  -22.6557   50.5899 N   0  0  0  1  0  0
   -6.0932  -22.0294   50.2500 C   0  0  0  1  0  0
   -4.8922  -22.7414   50.0212 C   0  0  0  1  0  0
   -3.8138  -22.0787   49.6400 O   0  0  0  1  0  0
   -0.5143  -26.0774   50.8036 C   0  0  0  1  0  0
   -1.3649  -26.8602   51.8316 C   0  0  0  1  0  0
   -2.3244  -27.8014   51.1718 N   0  0  0  1  0  0
   -3.4677  -28.2955   51.8133 C   0  0  0  1  0  0
   -3.7556  -27.9681   53.1625 C   0  0  0  1  0  0
   -4.9408  -28.4002   53.7774 C   0  0  0  1  0  0
   -5.8611  -29.1879   53.0668 C   0  0  0  1  0  0
   -7.1546  -29.6197   53.7161 C   0  0  0  1  0  0
   -8.3530  -28.8322   53.2117 C   0  0  0  1  0  0
   -9.0923  -29.3410   52.4003 O   0  0  0  1  0  0
   -8.5602  -27.6000   53.6751 O   0  0  0  1  0  0
   -7.1514  -30.0583   55.1731 C   0  0  0  1  0  0
   -5.5720  -29.5616   51.7445 C   0  0  0  1  0  0
   -4.3859  -29.1292   51.1291 C   0  0  0  1  0  0
   -1.9841  -28.1392   49.7560 C   0  0  0  1  0  0
   -1.8292  -26.8832   48.8587 C   0  0  0  1  0  0
   -7.3542  -31.0821   54.0840 C   0  0  0  1  0  0
   -2.6659  -24.8552   45.3005 H   0  0
   -4.1654  -25.0623   46.2253 H   0  0
   -2.7322  -26.0523   46.6263 H   0  0
   -3.1098  -24.1858   48.2162 H   0  0
   -4.1886  -22.5896   46.7415 H   0  0
   -2.6891  -22.3824   45.8168 H   0  0
   -2.7719  -21.8170   47.5104 H   0  0
   -0.8026  -22.6839   45.8306 H   0  0
    1.6639  -22.6215   46.0830 H   0  0
    2.7565  -23.9061   47.9143 H   0  0
    1.3854  -25.2428   49.4872 H   0  0
   -3.9952  -26.0142   49.8896 H   0  0
   -6.1760  -25.8627   50.5732 H   0  0
   -8.2189  -24.5081   50.9401 H   0  0
   -6.0895  -20.9439   50.1510 H   0  0
   -3.5368  -22.5445   48.7407 H   0  0
   -0.0580  -25.2220   51.3018 H   0  0
    0.2894  -26.7216   50.4471 H   0  0
   -0.7022  -27.4282   52.4845 H   0  0
   -1.9249  -26.1540   52.4445 H   0  0
   -3.0440  -27.3704   53.7321 H   0  0
   -5.1480  -28.1232   54.8111 H   0  0
   -7.6739  -27.0772   53.4660 H   0  0
   -8.0891  -29.8066   55.6686 H   0  0
   -6.1396  -30.0949   55.5768 H   0  0
   -6.2713  -30.1901   51.1931 H   0  0
   -4.1682  -29.4405   50.1074 H   0  0
   -2.7682  -28.7746   49.3441 H   0  0
   -1.0515  -28.7032   49.7408 H   0  0
   -1.1315  -27.1187   48.0551 H   0  0
   -2.7883  -26.6804   48.3823 H   0  0
   -6.4509  -31.6660   53.9072 H   0  0
   -8.4002  -31.3765   53.9978 H   0  0
  1  2  1  0
  2  3  1  0
  2  4  1  0
  4  5  2  0
  4  9  1  0
  5  6  1  0
  6  7  2  0
  7  8  1  0
  8  9  2  0
  9 10  1  0
 10 11  1  0
 10 21  1  0
 10 36  1  0
 11 12  2  0
 11 13  1  0
 13 14  1  0
 14 15  2  0
 14 19  1  0
 15 16  1  0
 16 17  2  0
 17 18  1  0
 18 19  2  0
 19 20  1  0
 21 22  1  0
 22 23  1  0
 23 24  1  0
 23 35  1  0
 24 25  2  0
 24 34  1  0
 25 26  1  0
 26 27  2  0
 27 28  1  0
 27 33  1  0
 28 29  1  0
 28 32  1  0
 28 37  1  0
 29 30  2  0
 29 31  1  0
 32 37  1  0
 33 34  2  0
 35 36  1  0
  1 38  1  0
  1 39  1  0
  1 40  1  0
  2 41  1  0
  3 42  1  0
  3 43  1  0
  3 44  1  0
  5 45  1  0
  6 46  1  0
  7 47  1  0
  8 48  1  0
 13 49  1  0
 15 50  1  0
 16 51  1  0
 18 52  1  0
 20 53  1  0
 21 54  1  0
 21 55  1  0
 22 56  1  0
 22 57  1  0
 25 58  1  0
 26 59  1  0
 31 60  1  0
 32 61  1  0
 32 62  1  0
 33 63  1  0
 34 64  1  0
 35 65  1  0
 35 66  1  0
 36 67  1  0
 36 68  1  0
 37 69  1  0
 37 70  1  0
M  END
> <Name>
Molecule

> <AbsoluteEnergy>
68.848

> <Clean Energy>
210.713

> <ConfNumber>
13

> <MOL_NUMBER>
1

> <RelativeEnergy>
5.54468

> <POSE_NUMBER>
40

> <LibDockScore>
111.26

> <HotSpots>
-7.33,-24.12,50.38,A,44,16
-6.13,-22.12,49.98,A,41,18
-8.73,-28.12,54.38,A,70,32

$$$$
Molecule
  SciTegic05072616053D

 70 74  0  0  0  0            999 V2000
    1.7426  -23.1078   49.1570 C   0  0  0  1  0  0
    0.7123  -24.1484   48.6754 C   0  0  0  1  0  0
    1.2731  -24.9740   47.4999 C   0  0  0  1  0  0
   -0.6189  -23.5052   48.3376 C   0  0  0  1  0  0
   -0.6189  -22.6404   47.2194 C   0  0  0  1  0  0
   -1.7748  -21.9654   46.8161 C   0  0  0  1  0  0
   -2.9600  -22.1390   47.5320 C   0  0  0  1  0  0
   -2.9873  -22.9921   48.6421 C   0  0  0  1  0  0
   -1.8388  -23.7130   49.0691 C   0  0  0  1  0  0
   -1.9601  -24.6512   50.2816 C   0  0  0  1  0  0
   -3.2136  -25.5661   50.1951 C   0  0  0  1  0  0
   -3.2824  -26.3344   49.2607 O   0  0  0  1  0  0
   -4.2390  -25.5370   51.1334 N   0  0  0  1  0  0
   -5.1560  -26.5408   51.4465 C   0  0  0  1  0  0
   -6.4193  -26.1500   51.9485 C   0  0  0  1  0  0
   -7.3769  -27.1191   52.2997 C   0  0  0  1  0  0
   -7.1177  -28.4474   52.1721 N   0  0  0  1  0  0
   -5.9122  -28.8536   51.6936 C   0  0  0  1  0  0
   -4.9015  -27.9367   51.3300 C   0  0  0  1  0  0
   -3.7387  -28.4042   50.9110 O   0  0  0  1  0  0
   -1.9624  -23.7856   51.6011 C   0  0  0  1  0  0
   -1.9524  -24.5879   52.9319 C   0  0  0  1  0  0
   -1.4922  -25.9849   52.7021 N   0  0  0  1  0  0
   -2.1582  -27.0982   53.2175 C   0  0  0  1  0  0
   -1.6133  -28.3953   53.0751 C   0  0  0  1  0  0
   -2.3264  -29.5257   53.5060 C   0  0  0  1  0  0
   -3.5955  -29.3826   54.0934 C   0  0  0  1  0  0
   -4.3869  -30.6030   54.4951 C   0  0  0  1  0  0
   -3.9533  -31.2001   55.8282 C   0  0  0  1  0  0
   -3.2885  -32.2095   55.8243 O   0  0  0  1  0  0
   -4.3074  -30.6141   56.9730 O   0  0  0  1  0  0
   -5.8524  -30.6856   54.0921 C   0  0  0  1  0  0
   -4.1237  -28.0959   54.2926 C   0  0  0  1  0  0
   -3.4078  -26.9648   53.8674 C   0  0  0  1  0  0
   -0.3306  -26.0644   51.7806 C   0  0  0  1  0  0
   -0.7700  -25.6954   50.3455 C   0  0  0  1  0  0
   -4.8386  -31.5655   53.4049 C   0  0  0  1  0  0
    1.9862  -22.4428   48.3285 H   0  0
    2.6465  -23.6272   49.4753 H   0  0
    1.3341  -22.5316   49.9872 H   0  0
    0.5236  -24.8380   49.4982 H   0  0
    2.1795  -25.4834   47.8271 H   0  0
    1.5193  -24.2989   46.6803 H   0  0
    0.5355  -25.7053   47.1693 H   0  0
    0.3044  -22.4964   46.6582 H   0  0
   -1.7504  -21.3073   45.9475 H   0  0
   -3.8636  -21.6110   47.2274 H   0  0
   -3.9187  -23.1071   49.1964 H   0  0
   -4.3377  -24.6268   51.6872 H   0  0
   -6.6524  -25.0915   52.0640 H   0  0
   -8.3461  -26.7984   52.6818 H   0  0
   -5.7193  -29.9211   51.5871 H   0  0
   -3.0416  -27.9702   51.5653 H   0  0
   -2.8409  -23.1404   51.5931 H   0  0
   -1.0930  -23.1283   51.5870 H   0  0
   -1.2831  -24.1012   53.6413 H   0  0
   -2.9585  -24.6056   53.3509 H   0  0
   -0.6281  -28.5192   52.6255 H   0  0
   -1.8938  -30.5188   53.3844 H   0  0
   -5.3550  -30.5591   56.9278 H   0  0
   -6.1432  -29.8418   53.4664 H   0  0
   -6.4372  -31.2414   54.8250 H   0  0
   -5.0919  -27.9752   54.7785 H   0  0
   -3.8205  -25.9709   54.0404 H   0  0
    0.0692  -27.0784   51.7868 H   0  0
    0.4425  -25.3711   52.1117 H   0  0
    0.0875  -25.2864   49.8112 H   0  0
   -1.0718  -26.6053   49.8268 H   0  0
   -4.8822  -32.5914   53.7705 H   0  0
   -4.5869  -31.1910   52.4127 H   0  0
  1  2  1  0
  2  3  1  0
  2  4  1  0
  4  5  2  0
  4  9  1  0
  5  6  1  0
  6  7  2  0
  7  8  1  0
  8  9  2  0
  9 10  1  0
 10 11  1  0
 10 21  1  0
 10 36  1  0
 11 12  2  0
 11 13  1  0
 13 14  1  0
 14 15  2  0
 14 19  1  0
 15 16  1  0
 16 17  2  0
 17 18  1  0
 18 19  2  0
 19 20  1  0
 21 22  1  0
 22 23  1  0
 23 24  1  0
 23 35  1  0
 24 25  2  0
 24 34  1  0
 25 26  1  0
 26 27  2  0
 27 28  1  0
 27 33  1  0
 28 29  1  0
 28 32  1  0
 28 37  1  0
 29 30  2  0
 29 31  1  0
 32 37  1  0
 33 34  2  0
 35 36  1  0
  1 38  1  0
  1 39  1  0
  1 40  1  0
  2 41  1  0
  3 42  1  0
  3 43  1  0
  3 44  1  0
  5 45  1  0
  6 46  1  0
  7 47  1  0
  8 48  1  0
 13 49  1  0
 15 50  1  0
 16 51  1  0
 18 52  1  0
 20 53  1  0
 21 54  1  0
 21 55  1  0
 22 56  1  0
 22 57  1  0
 25 58  1  0
 26 59  1  0
 31 60  1  0
 32 61  1  0
 32 62  1  0
 33 63  1  0
 34 64  1  0
 35 65  1  0
 35 66  1  0
 36 67  1  0
 36 68  1  0
 37 69  1  0
 37 70  1  0
M  END
> <Name>
Molecule

> <AbsoluteEnergy>
73.3538

> <Clean Energy>
210.713

> <ConfNumber>
39

> <MOL_NUMBER>
1

> <RelativeEnergy>
10.0504

> <POSE_NUMBER>
41

> <LibDockScore>
110.9026

> <HotSpots>
1.87,-25.32,48.38,A,30,3
-6.33,-26.32,51.98,A,57,15
-3.33,-32.52,56.19,P,67,30

$$$$
Molecule
  SciTegic05072616053D

 70 74  0  0  0  0            999 V2000
   -0.4617  -26.3370   48.2470 C   0  0  0  1  0  0
   -1.2121  -25.5142   49.3111 C   0  0  0  1  0  0
   -1.9116  -24.2891   48.6908 C   0  0  0  1  0  0
   -0.3114  -25.1262   50.4628 C   0  0  0  1  0  0
    0.8165  -24.3397   50.1435 C   0  0  0  1  0  0
    1.7178  -23.9277   51.1308 C   0  0  0  1  0  0
    1.5077  -24.3008   52.4599 C   0  0  0  1  0  0
    0.3944  -25.0789   52.8012 C   0  0  0  1  0  0
   -0.5423  -25.5078   51.8247 C   0  0  0  1  0  0
   -1.7547  -26.3481   52.2505 C   0  0  0  1  0  0
   -3.0446  -25.8272   51.5913 C   0  0  0  1  0  0
   -3.7284  -26.5904   50.9455 O   0  0  0  1  0  0
   -3.4070  -24.4923   51.7205 N   0  0  0  1  0  0
   -4.5726  -23.8940   51.2529 C   0  0  0  1  0  0
   -4.4658  -22.6177   50.6545 C   0  0  0  1  0  0
   -5.6076  -21.9864   50.1290 C   0  0  0  1  0  0
   -6.8330  -22.5747   50.1885 N   0  0  0  1  0  0
   -6.9654  -23.7944   50.7822 C   0  0  0  1  0  0
   -5.8634  -24.4816   51.3409 C   0  0  0  1  0  0
   -6.0567  -25.6453   51.9399 O   0  0  0  1  0  0
   -1.4729  -27.8607   51.9040 C   0  0  0  1  0  0
   -2.0620  -28.8859   52.8983 C   0  0  0  1  0  0
   -3.3635  -28.4003   53.4202 N   0  0  0  1  0  0
   -4.5817  -28.9988   53.1210 C   0  0  0  1  0  0
   -5.7727  -28.5622   53.7455 C   0  0  0  1  0  0
   -7.0185  -29.0666   53.3380 C   0  0  0  1  0  0
   -7.0880  -30.0172   52.3056 C   0  0  0  1  0  0
   -8.4247  -30.4527   51.7549 C   0  0  0  1  0  0
   -9.1085  -29.3320   50.9664 C   0  0  0  1  0  0
   -9.8915  -29.6196   50.0886 O   0  0  0  1  0  0
   -8.8249  -28.0580   51.2653 O   0  0  0  1  0  0
   -9.2759  -31.4306   52.5503 C   0  0  0  1  0  0
   -5.9052  -30.5423   51.7606 C   0  0  0  1  0  0
   -4.6605  -30.0369   52.1634 C   0  0  0  1  0  0
   -3.2754  -27.1467   54.2202 C   0  0  0  1  0  0
   -2.0492  -26.3013   53.7925 C   0  0  0  1  0  0
   -8.5975  -31.8878   51.2807 C   0  0  0  1  0  0
    0.2800  -25.6954   47.7713 H   0  0
   -1.1780  -26.6678   47.4950 H   0  0
    0.0256  -27.1978   48.7050 H   0  0
   -1.9915  -26.1554   49.7227 H   0  0
   -2.6158  -24.6370   47.9351 H   0  0
   -1.1578  -23.6646   48.2114 H   0  0
   -2.4362  -23.7207   49.4588 H   0  0
    0.9885  -24.0478   49.1075 H   0  0
    2.5808  -23.3178   50.8636 H   0  0
    2.2102  -23.9864   53.2318 H   0  0
    0.2434  -25.3623   53.8428 H   0  0
   -2.7162  -23.8568   52.2342 H   0  0
   -3.4966  -22.1218   50.6002 H   0  0
   -5.5087  -21.0054   49.6644 H   0  0
   -7.9524  -24.2547   50.8277 H   0  0
   -5.6649  -25.5048   52.9039 H   0  0
   -0.3948  -28.0117   51.8486 H   0  0
   -1.8718  -28.0713   50.9117 H   0  0
   -1.3697  -29.0255   53.7285 H   0  0
   -2.2095  -29.8391   52.3906 H   0  0
   -5.7236  -27.8281   54.5498 H   0  0
   -7.9315  -28.7206   53.8226 H   0  0
   -7.7823  -27.9810   51.1676 H   0  0
  -10.3401  -31.2524   52.3958 H   0  0
   -8.7518  -31.7869   53.4371 H   0  0
   -5.9545  -31.3438   51.0235 H   0  0
   -3.7462  -30.4475   51.7350 H   0  0
   -3.1867  -27.3990   55.2769 H   0  0
   -4.1836  -26.5621   54.0736 H   0  0
   -2.2158  -25.2658   54.0894 H   0  0
   -1.1711  -26.6589   54.3302 H   0  0
   -7.7125  -32.4882   51.4915 H   0  0
   -9.3002  -31.9522   50.4499 H   0  0
  1  2  1  0
  2  3  1  0
  2  4  1  0
  4  5  2  0
  4  9  1  0
  5  6  1  0
  6  7  2  0
  7  8  1  0
  8  9  2  0
  9 10  1  0
 10 11  1  0
 10 21  1  0
 10 36  1  0
 11 12  2  0
 11 13  1  0
 13 14  1  0
 14 15  2  0
 14 19  1  0
 15 16  1  0
 16 17  2  0
 17 18  1  0
 18 19  2  0
 19 20  1  0
 21 22  1  0
 22 23  1  0
 23 24  1  0
 23 35  1  0
 24 25  2  0
 24 34  1  0
 25 26  1  0
 26 27  2  0
 27 28  1  0
 27 33  1  0
 28 29  1  0
 28 32  1  0
 28 37  1  0
 29 30  2  0
 29 31  1  0
 32 37  1  0
 33 34  2  0
 35 36  1  0
  1 38  1  0
  1 39  1  0
  1 40  1  0
  2 41  1  0
  3 42  1  0
  3 43  1  0
  3 44  1  0
  5 45  1  0
  6 46  1  0
  7 47  1  0
  8 48  1  0
 13 49  1  0
 15 50  1  0
 16 51  1  0
 18 52  1  0
 20 53  1  0
 21 54  1  0
 21 55  1  0
 22 56  1  0
 22 57  1  0
 25 58  1  0
 26 59  1  0
 31 60  1  0
 32 61  1  0
 32 62  1  0
 33 63  1  0
 34 64  1  0
 35 65  1  0
 35 66  1  0
 36 67  1  0
 36 68  1  0
 37 69  1  0
 37 70  1  0
M  END
> <Name>
Molecule

> <AbsoluteEnergy>
67.4095

> <Clean Energy>
210.713

> <ConfNumber>
8

> <MOL_NUMBER>
1

> <RelativeEnergy>
4.10615

> <POSE_NUMBER>
42

> <LibDockScore>
110.1425

> <HotSpots>
0.87,-24.32,52.78,A,63,7
-7.33,-24.12,50.38,A,44,18
-6.53,-30.72,51.78,A,56,33

$$$$
Molecule
  SciTegic05072616053D

 70 74  0  0  0  0            999 V2000
   -2.5776  -27.5173   48.7500 C   0  0  0  1  0  0
   -2.6580  -26.6823   50.0398 C   0  0  0  1  0  0
   -1.2754  -26.1052   50.4097 C   0  0  0  1  0  0
   -3.7317  -25.6200   49.9380 C   0  0  0  1  0  0
   -3.5012  -24.5800   49.0080 C   0  0  0  1  0  0
   -4.4509  -23.5756   48.7911 C   0  0  0  1  0  0
   -5.6589  -23.6039   49.4918 C   0  0  0  1  0  0
   -5.9052  -24.6204   50.4232 C   0  0  0  1  0  0
   -4.9439  -25.6244   50.7098 C   0  0  0  1  0  0
   -5.2397  -26.6760   51.7964 C   0  0  0  1  0  0
   -4.1076  -26.7257   52.8445 C   0  0  0  1  0  0
   -3.6143  -25.6997   53.2575 O   0  0  0  1  0  0
   -3.6717  -27.9505   53.3203 N   0  0  0  1  0  0
   -2.6624  -28.2033   54.2409 C   0  0  0  1  0  0
   -2.8896  -29.2272   55.1878 C   0  0  0  1  0  0
   -1.9118  -29.5229   56.1532 C   0  0  0  1  0  0
   -0.7377  -28.8401   56.2035 N   0  0  0  1  0  0
   -0.4907  -27.8554   55.2965 C   0  0  0  1  0  0
   -1.4193  -27.5161   54.2862 C   0  0  0  1  0  0
   -1.1018  -26.5847   53.4022 O   0  0  0  1  0  0
   -5.4756  -28.0321   51.0204 C   0  0  0  1  0  0
   -6.3375  -29.1223   51.6994 C   0  0  0  1  0  0
   -7.5057  -28.5617   52.4304 N   0  0  0  1  0  0
   -8.2644  -29.3398   53.2918 C   0  0  0  1  0  0
   -7.6316  -30.2664   54.1497 C   0  0  0  1  0  0
   -8.3911  -31.0672   55.0193 C   0  0  0  1  0  0
   -9.7961  -30.9600   55.0395 C   0  0  0  1  0  0
  -10.6362  -31.8300   55.9581 C   0  0  0  1  0  0
  -10.9891  -31.1708   57.3006 C   0  0  0  1  0  0
  -10.3258  -30.2344   57.6860 O   0  0  0  1  0  0
  -12.0169  -31.6206   58.0315 O   0  0  0  1  0  0
  -11.6844  -32.7002   55.2806 C   0  0  0  1  0  0
  -10.4289  -30.0275   54.1951 C   0  0  0  1  0  0
   -9.6701  -29.2183   53.3319 C   0  0  0  1  0  0
   -7.7791  -27.1158   52.2358 C   0  0  0  1  0  0
   -6.5201  -26.3454   52.6648 C   0  0  0  1  0  0
  -10.4740  -33.3432   55.9164 C   0  0  0  1  0  0
   -1.8711  -28.3333   48.9017 H   0  0
   -2.2198  -26.8816   47.9401 H   0  0
   -3.5599  -27.9185   48.5005 H   0  0
   -2.9520  -27.3382   50.8592 H   0  0
   -0.9248  -25.4773   49.5906 H   0  0
   -0.5761  -26.9290   50.5522 H   0  0
   -1.3467  -25.5165   51.3243 H   0  0
   -2.5655  -24.5604   48.4492 H   0  0
   -4.2491  -22.7753   48.0791 H   0  0
   -6.4102  -22.8345   49.3136 H   0  0
   -6.8630  -24.6410   50.9431 H   0  0
   -4.1753  -28.8102   52.9301 H   0  0
   -3.8240  -29.7882   55.1696 H   0  0
   -2.0990  -30.3164   56.8767 H   0  0
    0.4524  -27.3117   55.3510 H   0  0
   -1.8906  -25.8947   53.4672 H   0  0
   -4.5030  -28.4664   50.7891 H   0  0
   -5.9257  -27.7981   50.0556 H   0  0
   -6.6961  -29.8164   50.9393 H   0  0
   -5.7176  -29.6816   52.4001 H   0  0
   -6.5458  -30.3610   54.1371 H   0  0
   -7.8913  -31.7745   55.6812 H   0  0
  -11.8076  -32.6395   58.1749 H   0  0
  -11.5955  -32.6617   54.1949 H   0  0
  -12.5727  -32.8127   55.9022 H   0  0
  -11.5146  -29.9326   54.2110 H   0  0
  -10.1699  -28.4930   52.6899 H   0  0
   -8.6235  -26.8128   52.8549 H   0  0
   -7.9898  -26.9188   51.1847 H   0  0
   -6.7244  -25.2766   52.6008 H   0  0
   -6.3071  -26.5752   53.7088 H   0  0
  -10.7181  -33.7982   56.8764 H   0  0
   -9.7402  -33.6457   55.1693 H   0  0
  1  2  1  0
  2  3  1  0
  2  4  1  0
  4  5  2  0
  4  9  1  0
  5  6  1  0
  6  7  2  0
  7  8  1  0
  8  9  2  0
  9 10  1  0
 10 11  1  0
 10 21  1  0
 10 36  1  0
 11 12  2  0
 11 13  1  0
 13 14  1  0
 14 15  2  0
 14 19  1  0
 15 16  1  0
 16 17  2  0
 17 18  1  0
 18 19  2  0
 19 20  1  0
 21 22  1  0
 22 23  1  0
 23 24  1  0
 23 35  1  0
 24 25  2  0
 24 34  1  0
 25 26  1  0
 26 27  2  0
 27 28  1  0
 27 33  1  0
 28 29  1  0
 28 32  1  0
 28 37  1  0
 29 30  2  0
 29 31  1  0
 32 37  1  0
 33 34  2  0
 35 36  1  0
  1 38  1  0
  1 39  1  0
  1 40  1  0
  2 41  1  0
  3 42  1  0
  3 43  1  0
  3 44  1  0
  5 45  1  0
  6 46  1  0
  7 47  1  0
  8 48  1  0
 13 49  1  0
 15 50  1  0
 16 51  1  0
 18 52  1  0
 20 53  1  0
 21 54  1  0
 21 55  1  0
 22 56  1  0
 22 57  1  0
 25 58  1  0
 26 59  1  0
 31 60  1  0
 32 61  1  0
 32 62  1  0
 33 63  1  0
 34 64  1  0
 35 65  1  0
 35 66  1  0
 36 67  1  0
 36 68  1  0
 37 69  1  0
 37 70  1  0
M  END
> <Name>
Molecule

> <AbsoluteEnergy>
75.6462

> <Clean Energy>
210.713

> <ConfNumber>
50

> <MOL_NUMBER>
1

> <RelativeEnergy>
12.3429

> <POSE_NUMBER>
43

> <LibDockScore>
108.3799

> <HotSpots>
-0.93,-29.52,55.38,P,63,17
-11.53,-32.52,54.78,A,71,32
-6.33,-26.32,51.98,A,57,36

$$$$
Molecule
  SciTegic05072616053D

 70 74  0  0  0  0            999 V2000
   -5.9837  -27.9370   52.3865 C   0  0  0  1  0  0
   -4.7184  -28.6489   51.8691 C   0  0  0  1  0  0
   -5.0352  -30.0853   51.4068 C   0  0  0  1  0  0
   -3.5916  -28.5882   52.8731 C   0  0  0  1  0  0
   -3.7483  -29.3763   54.0328 C   0  0  0  1  0  0
   -2.7497  -29.4396   55.0094 C   0  0  0  1  0  0
   -1.5715  -28.7092   54.8430 C   0  0  0  1  0  0
   -1.4038  -27.8978   53.7125 C   0  0  0  1  0  0
   -2.4090  -27.7905   52.7139 C   0  0  0  1  0  0
   -2.1994  -26.8385   51.5288 C   0  0  0  1  0  0
   -3.2507  -25.7137   51.5929 C   0  0  0  1  0  0
   -3.2891  -25.0305   52.5929 O   0  0  0  1  0  0
   -4.1335  -25.4600   50.5533 N   0  0  0  1  0  0
   -5.0604  -24.4367   50.5203 C   0  0  0  1  0  0
   -6.4215  -24.7518   50.3329 C   0  0  0  1  0  0
   -7.3758  -23.7207   50.2933 C   0  0  0  1  0  0
   -7.0140  -22.4136   50.4177 N   0  0  0  1  0  0
   -5.7009  -22.0895   50.5887 C   0  0  0  1  0  0
   -4.6929  -23.0756   50.6445 C   0  0  0  1  0  0
   -3.4251  -22.7278   50.7899 O   0  0  0  1  0  0
   -0.8433  -26.0409   51.5917 C   0  0  0  1  0  0
   -0.6760  -25.0077   50.4425 C   0  0  0  1  0  0
   -1.3360  -25.5013   49.1998 N   0  0  0  1  0  0
   -2.0411  -24.6616   48.3372 C   0  0  0  1  0  0
   -3.1030  -25.1697   47.5537 C   0  0  0  1  0  0
   -3.8910  -24.3162   46.7703 C   0  0  0  1  0  0
   -3.6491  -22.9342   46.7668 C   0  0  0  1  0  0
   -4.5916  -22.0268   46.0024 C   0  0  0  1  0  0
   -5.9300  -21.8149   46.7262 C   0  0  0  1  0  0
   -6.0838  -22.2960   47.8277 O   0  0  0  1  0  0
   -6.9126  -21.1195   46.1469 O   0  0  0  1  0  0
   -4.0210  -20.9193   45.1267 C   0  0  0  1  0  0
   -2.5562  -22.4197   47.4895 C   0  0  0  1  0  0
   -1.7465  -23.2801   48.2523 C   0  0  0  1  0  0
   -1.2788  -26.9796   49.0570 C   0  0  0  1  0  0
   -2.1008  -27.6587   50.1837 C   0  0  0  1  0  0
   -4.6180  -22.1507   44.4867 C   0  0  0  1  0  0
   -6.3895  -28.5076   53.2218 H   0  0
   -6.7214  -27.9075   51.5846 H   0  0
   -5.7426  -26.9241   52.7089 H   0  0
   -4.3664  -28.1097   50.9896 H   0  0
   -5.7794  -30.0410   50.6116 H   0  0
   -5.4476  -30.6411   52.2489 H   0  0
   -4.1308  -30.5740   51.0444 H   0  0
   -4.6665  -29.9474   54.1702 H   0  0
   -2.8904  -30.0566   55.8969 H   0  0
   -0.7821  -28.7700   55.5922 H   0  0
   -0.4780  -27.3343   53.5963 H   0  0
   -4.0929  -26.1119   49.7058 H   0  0
   -6.7325  -25.7903   50.2192 H   0  0
   -8.4279  -23.9725   50.1602 H   0  0
   -5.4220  -21.0402   50.6849 H   0  0
   -2.9396  -23.1514   49.9608 H   0  0
   -0.7851  -25.5180   52.5463 H   0  0
   -0.0145  -26.7478   51.5525 H   0  0
    0.3850  -24.8502   50.2485 H   0  0
   -1.1280  -24.0612   50.7389 H   0  0
   -3.3113  -26.2396   47.5593 H   0  0
   -4.6956  -24.7277   46.1608 H   0  0
   -7.0720  -21.6078   45.2311 H   0  0
   -2.9314  -20.9449   45.1089 H   0  0
   -4.6983  -20.0673   45.0687 H   0  0
   -2.3371  -21.3524   47.4578 H   0  0
   -0.8834  -22.8788   48.7834 H   0  0
   -1.6889  -27.2654   48.0884 H   0  0
   -0.2418  -27.3098   49.1177 H   0  0
   -1.6575  -28.6309   50.3994 H   0  0
   -3.1087  -27.8461   49.8133 H   0  0
   -5.6124  -21.9537   44.0862 H   0  0
   -3.8463  -22.8318   44.1279 H   0  0
  1  2  1  0
  2  3  1  0
  2  4  1  0
  4  5  2  0
  4  9  1  0
  5  6  1  0
  6  7  2  0
  7  8  1  0
  8  9  2  0
  9 10  1  0
 10 11  1  0
 10 21  1  0
 10 36  1  0
 11 12  2  0
 11 13  1  0
 13 14  1  0
 14 15  2  0
 14 19  1  0
 15 16  1  0
 16 17  2  0
 17 18  1  0
 18 19  2  0
 19 20  1  0
 21 22  1  0
 22 23  1  0
 23 24  1  0
 23 35  1  0
 24 25  2  0
 24 34  1  0
 25 26  1  0
 26 27  2  0
 27 28  1  0
 27 33  1  0
 28 29  1  0
 28 32  1  0
 28 37  1  0
 29 30  2  0
 29 31  1  0
 32 37  1  0
 33 34  2  0
 35 36  1  0
  1 38  1  0
  1 39  1  0
  1 40  1  0
  2 41  1  0
  3 42  1  0
  3 43  1  0
  3 44  1  0
  5 45  1  0
  6 46  1  0
  7 47  1  0
  8 48  1  0
 13 49  1  0
 15 50  1  0
 16 51  1  0
 18 52  1  0
 20 53  1  0
 21 54  1  0
 21 55  1  0
 22 56  1  0
 22 57  1  0
 25 58  1  0
 26 59  1  0
 31 60  1  0
 32 61  1  0
 32 62  1  0
 33 63  1  0
 34 64  1  0
 35 65  1  0
 35 66  1  0
 36 67  1  0
 36 68  1  0
 37 69  1  0
 37 70  1  0
M  END
> <Name>
Molecule

> <AbsoluteEnergy>
72.7594

> <Clean Energy>
210.713

> <ConfNumber>
36

> <MOL_NUMBER>
1

> <RelativeEnergy>
9.45603

> <POSE_NUMBER>
44

> <LibDockScore>
108.2652

> <HotSpots>
-6.13,-22.12,49.98,A,41,18
-6.33,-21.12,45.38,P,21,31
-3.53,-20.52,45.19,A,12,32

$$$$
Molecule
  SciTegic05072616053D

 70 74  0  0  0  0            999 V2000
    2.6714  -24.3836   48.8428 C   0  0  0  1  0  0
    1.5615  -24.9117   47.9074 C   0  0  0  1  0  0
    2.1746  -25.6071   46.6725 C   0  0  0  1  0  0
    0.5724  -23.8238   47.5405 C   0  0  0  1  0  0
    1.0461  -22.8487   46.6257 C   0  0  0  1  0  0
    0.2372  -21.8069   46.1726 C   0  0  0  1  0  0
   -1.0802  -21.7133   46.6253 C   0  0  0  1  0  0
   -1.5741  -22.6548   47.5446 C   0  0  0  1  0  0
   -0.7764  -23.7224   48.0446 C   0  0  0  1  0  0
   -1.3837  -24.6928   49.0869 C   0  0  0  1  0  0
   -2.6735  -24.1163   49.7474 C   0  0  0  1  0  0
   -2.5574  -23.0949   50.3859 O   0  0  0  1  0  0
   -3.9387  -24.6891   49.6423 N   0  0  0  1  0  0
   -5.1188  -24.1044   50.1094 C   0  0  0  1  0  0
   -6.2963  -24.2341   49.3357 C   0  0  0  1  0  0
   -7.4799  -23.5879   49.7408 C   0  0  0  1  0  0
   -7.5199  -22.8298   50.8737 N   0  0  0  1  0  0
   -6.4127  -22.7186   51.6553 C   0  0  0  1  0  0
   -5.2071  -23.3733   51.3343 C   0  0  0  1  0  0
   -4.2241  -23.2945   52.2152 O   0  0  0  1  0  0
   -0.4225  -24.8617   50.3240 C   0  0  0  1  0  0
   -0.9409  -25.8698   51.3884 C   0  0  0  1  0  0
   -1.5934  -27.0623   50.7673 N   0  0  0  1  0  0
   -2.4925  -27.8860   51.4525 C   0  0  0  1  0  0
   -3.1551  -28.9376   50.7836 C   0  0  0  1  0  0
   -4.0161  -29.8068   51.4701 C   0  0  0  1  0  0
   -4.2718  -29.6422   52.8469 C   0  0  0  1  0  0
   -5.2202  -30.6184   53.5617 C   0  0  0  1  0  0
   -5.5862  -30.2991   55.0258 C   0  0  0  1  0  0
   -5.0333  -30.8897   55.9357 O   0  0  0  1  0  0
   -6.5404  -29.3974   55.2933 O   0  0  0  1  0  0
   -6.3467  -31.2502   52.7479 C   0  0  0  1  0  0
   -3.6418  -28.5657   53.5140 C   0  0  0  1  0  0
   -2.7638  -27.7029   52.8305 C   0  0  0  1  0  0
   -1.1912  -27.2951   49.3520 C   0  0  0  1  0  0
   -1.6045  -26.1166   48.4497 C   0  0  0  1  0  0
   -5.1855  -32.1039   53.2037 C   0  0  0  1  0  0
    3.2891  -23.6727   48.2941 H   0  0
    3.2905  -25.2204   49.1663 H   0  0
    2.2277  -23.8951   49.7103 H   0  0
    0.9887  -25.6658   48.4472 H   0  0
    2.7959  -26.4384   47.0056 H   0  0
    2.7945  -24.8908   46.1334 H   0  0
    1.3831  -25.9756   46.0199 H   0  0
    2.0729  -22.9156   46.2662 H   0  0
    0.6304  -21.0716   45.4706 H   0  0
   -1.7249  -20.9111   46.2662 H   0  0
   -2.6050  -22.5642   47.8869 H   0  0
   -4.0124  -25.6462   49.1696 H   0  0
   -6.2872  -24.8344   48.4259 H   0  0
   -8.3813  -23.6956   49.1375 H   0  0
   -6.4592  -22.1057   52.5555 H   0  0
   -3.4206  -22.9333   51.6439 H   0  0
   -0.2833  -23.8905   50.7988 H   0  0
    0.5528  -25.1954   49.9697 H   0  0
   -0.1039  -26.2024   52.0024 H   0  0
   -1.6604  -25.3684   52.0357 H   0  0
   -2.9949  -29.0768   49.7145 H   0  0
   -4.4955  -30.6232   50.9300 H   0  0
   -7.3868  -29.7453   54.7785 H   0  0
   -6.2678  -30.9946   51.6912 H   0  0
   -7.2339  -31.4181   53.3585 H   0  0
   -3.8390  -28.4016   54.5734 H   0  0
   -2.2869  -26.8837   53.3687 H   0  0
   -1.6651  -28.2072   48.9892 H   0  0
   -0.1097  -27.4217   49.3030 H   0  0
   -1.0408  -26.1762   47.5187 H   0  0
   -2.6583  -26.2264   48.1937 H   0  0
   -5.4541  -32.7263   54.0573 H   0  0
   -4.4872  -32.3013   52.3904 H   0  0
  1  2  1  0
  2  3  1  0
  2  4  1  0
  4  5  2  0
  4  9  1  0
  5  6  1  0
  6  7  2  0
  7  8  1  0
  8  9  2  0
  9 10  1  0
 10 11  1  0
 10 21  1  0
 10 36  1  0
 11 12  2  0
 11 13  1  0
 13 14  1  0
 14 15  2  0
 14 19  1  0
 15 16  1  0
 16 17  2  0
 17 18  1  0
 18 19  2  0
 19 20  1  0
 21 22  1  0
 22 23  1  0
 23 24  1  0
 23 35  1  0
 24 25  2  0
 24 34  1  0
 25 26  1  0
 26 27  2  0
 27 28  1  0
 27 33  1  0
 28 29  1  0
 28 32  1  0
 28 37  1  0
 29 30  2  0
 29 31  1  0
 32 37  1  0
 33 34  2  0
 35 36  1  0
  1 38  1  0
  1 39  1  0
  1 40  1  0
  2 41  1  0
  3 42  1  0
  3 43  1  0
  3 44  1  0
  5 45  1  0
  6 46  1  0
  7 47  1  0
  8 48  1  0
 13 49  1  0
 15 50  1  0
 16 51  1  0
 18 52  1  0
 20 53  1  0
 21 54  1  0
 21 55  1  0
 22 56  1  0
 22 57  1  0
 25 58  1  0
 26 59  1  0
 31 60  1  0
 32 61  1  0
 32 62  1  0
 33 63  1  0
 34 64  1  0
 35 65  1  0
 35 66  1  0
 36 67  1  0
 36 68  1  0
 37 69  1  0
 37 70  1  0
M  END
> <Name>
Molecule

> <AbsoluteEnergy>
80.6029

> <Clean Energy>
210.713

> <ConfNumber>
88

> <MOL_NUMBER>
1

> <RelativeEnergy>
17.2995

> <POSE_NUMBER>
45

> <LibDockScore>
104.8784

> <HotSpots>
2.67,-23.92,48.98,A,32,1
1.87,-24.92,46.78,A,22,3
-7.73,-22.52,50.78,P,40,17

$$$$
Molecule
  SciTegic05072616053D

 70 74  0  0  0  0            999 V2000
   -3.3224  -24.5143   46.5531 C   0  0  0  1  0  0
   -2.4938  -25.7664   46.9021 C   0  0  0  1  0  0
   -2.3718  -26.7178   45.6956 C   0  0  0  1  0  0
   -1.1463  -25.4003   47.4820 C   0  0  0  1  0  0
   -0.2428  -24.7435   46.6103 C   0  0  0  1  0  0
    1.0397  -24.3745   47.0302 C   0  0  0  1  0  0
    1.4411  -24.6512   48.3376 C   0  0  0  1  0  0
    0.5596  -25.2906   49.2235 C   0  0  0  1  0  0
   -0.7495  -25.6782   48.8331 C   0  0  0  1  0  0
   -1.6656  -26.3777   49.8557 C   0  0  0  1  0  0
   -3.0414  -25.7104   49.9740 C   0  0  0  1  0  0
   -4.0350  -26.3776   49.7772 O   0  0  0  1  0  0
   -3.1656  -24.3716   50.3062 N   0  0  0  1  0  0
   -4.3808  -23.7012   50.3344 C   0  0  0  1  0  0
   -4.5154  -22.4847   49.6330 C   0  0  0  1  0  0
   -5.7554  -21.8189   49.6231 C   0  0  0  1  0  0
   -6.8386  -22.3165   50.2854 N   0  0  0  1  0  0
   -6.7206  -23.4786   50.9890 C   0  0  0  1  0  0
   -5.5060  -24.1920   51.0499 C   0  0  0  1  0  0
   -5.4329  -25.2990   51.7749 O   0  0  0  1  0  0
   -1.0807  -26.4046   51.3075 C   0  0  0  1  0  0
   -2.0252  -27.0237   52.3647 C   0  0  0  1  0  0
   -2.8470  -28.1354   51.8097 N   0  0  0  1  0  0
   -4.0602  -28.4796   52.3973 C   0  0  0  1  0  0
   -4.1901  -28.5231   53.8049 C   0  0  0  1  0  0
   -5.4093  -28.8960   54.4016 C   0  0  0  1  0  0
   -6.5180  -29.2279   53.6008 C   0  0  0  1  0  0
   -7.8114  -29.6784   54.2513 C   0  0  0  1  0  0
   -8.5143  -28.5983   55.0656 C   0  0  0  1  0  0
   -8.5024  -28.6780   56.2715 O   0  0  0  1  0  0
   -9.1414  -27.5951   54.4492 O   0  0  0  1  0  0
   -8.6742  -30.7266   53.5605 C   0  0  0  1  0  0
   -6.4070  -29.1446   52.1978 C   0  0  0  1  0  0
   -5.1852  -28.7843   51.5990 C   0  0  0  1  0  0
   -2.3200  -28.8360   50.6001 C   0  0  0  1  0  0
   -1.8211  -27.8876   49.4735 C   0  0  0  1  0  0
   -7.8834  -31.1009   54.7863 C   0  0  0  1  0  0
   -4.3161  -24.8318   46.2370 H   0  0
   -2.8369  -23.9951   45.7268 H   0  0
   -3.3973  -23.8547   47.4176 H   0  0
   -3.0315  -26.3095   47.6793 H   0  0
   -1.8939  -26.1809   44.8762 H   0  0
   -3.3731  -27.0175   45.3864 H   0  0
   -1.7834  -27.5959   45.9617 H   0  0
   -0.5539  -24.5207   45.5897 H   0  0
    1.7203  -23.8745   46.3411 H   0  0
    2.4401  -24.3706   48.6714 H   0  0
    0.8900  -25.4957   50.2418 H   0  0
   -2.2792  -23.8259   50.5539 H   0  0
   -3.6629  -22.0622   49.1011 H   0  0
   -5.8522  -20.8830   49.0728 H   0  0
   -7.5900  -23.8670   51.5194 H   0  0
   -4.6407  -25.1197   52.4403 H   0  0
   -0.8395  -25.3852   51.6087 H   0  0
   -0.1476  -26.9680   51.2995 H   0  0
   -1.4304  -27.4029   53.1956 H   0  0
   -2.6894  -26.2491   52.7480 H   0  0
   -3.3379  -28.2654   54.4338 H   0  0
   -5.4950  -28.9278   55.4878 H   0  0
   -9.8278  -28.0665   53.8096 H   0  0
   -8.2030  -31.0941   52.6489 H   0  0
   -9.7308  -30.5871   53.7892 H   0  0
   -7.2733  -29.3607   51.5725 H   0  0
   -5.1066  -28.7401   50.5127 H   0  0
   -3.1043  -29.4766   50.1969 H   0  0
   -1.4974  -29.4841   50.9025 H   0  0
   -0.8593  -28.2550   49.1157 H   0  0
   -2.5095  -27.9615   48.6316 H   0  0
   -8.5169  -31.1637   55.6710 H   0  0
   -6.9889  -31.6691   54.5311 H   0  0
  1  2  1  0
  2  3  1  0
  2  4  1  0
  4  5  2  0
  4  9  1  0
  5  6  1  0
  6  7  2  0
  7  8  1  0
  8  9  2  0
  9 10  1  0
 10 11  1  0
 10 21  1  0
 10 36  1  0
 11 12  2  0
 11 13  1  0
 13 14  1  0
 14 15  2  0
 14 19  1  0
 15 16  1  0
 16 17  2  0
 17 18  1  0
 18 19  2  0
 19 20  1  0
 21 22  1  0
 22 23  1  0
 23 24  1  0
 23 35  1  0
 24 25  2  0
 24 34  1  0
 25 26  1  0
 26 27  2  0
 27 28  1  0
 27 33  1  0
 28 29  1  0
 28 32  1  0
 28 37  1  0
 29 30  2  0
 29 31  1  0
 32 37  1  0
 33 34  2  0
 35 36  1  0
  1 38  1  0
  1 39  1  0
  1 40  1  0
  2 41  1  0
  3 42  1  0
  3 43  1  0
  3 44  1  0
  5 45  1  0
  6 46  1  0
  7 47  1  0
  8 48  1  0
 13 49  1  0
 15 50  1  0
 16 51  1  0
 18 52  1  0
 20 53  1  0
 21 54  1  0
 21 55  1  0
 22 56  1  0
 22 57  1  0
 25 58  1  0
 26 59  1  0
 31 60  1  0
 32 61  1  0
 32 62  1  0
 33 63  1  0
 34 64  1  0
 35 65  1  0
 35 66  1  0
 36 67  1  0
 36 68  1  0
 37 69  1  0
 37 70  1  0
M  END
> <Name>
Molecule

> <AbsoluteEnergy>
67.1347

> <Clean Energy>
210.713

> <ConfNumber>
6

> <MOL_NUMBER>
1

> <RelativeEnergy>
3.83132

> <POSE_NUMBER>
46

> <LibDockScore>
99.8446

> <HotSpots>
0.27,-22.52,46.78,A,23,5
-4.73,-22.32,50.38,A,46,15
-7.13,-31.92,50.98,A,49,32

$$$$
Molecule
  SciTegic05072616053D

 70 74  0  0  0  0            999 V2000
    1.0251  -25.1896   46.9843 C   0  0  0  1  0  0
    0.1008  -24.4831   47.9955 C   0  0  0  1  0  0
   -0.3682  -23.1186   47.4514 C   0  0  0  1  0  0
    0.7512  -24.3607   49.3600 C   0  0  0  1  0  0
    1.9704  -23.6464   49.3992 C   0  0  0  1  0  0
    2.6843  -23.4816   50.5899 C   0  0  0  1  0  0
    2.1920  -24.0370   51.7715 C   0  0  0  1  0  0
    0.9852  -24.7471   51.7603 C   0  0  0  1  0  0
    0.2196  -24.9165   50.5745 C   0  0  0  1  0  0
   -1.1094  -25.6864   50.6530 C   0  0  0  1  0  0
   -1.4269  -26.1671   52.0966 C   0  0  0  1  0  0
   -1.8398  -25.3429   52.8829 O   0  0  0  1  0  0
   -1.2591  -27.4836   52.5107 N   0  0  0  1  0  0
   -1.5259  -28.0390   53.7625 C   0  0  0  1  0  0
   -0.5974  -28.9692   54.2854 C   0  0  0  1  0  0
   -0.8240  -29.5763   55.5342 C   0  0  0  1  0  0
   -1.9333  -29.2929   56.2669 N   0  0  0  1  0  0
   -2.8441  -28.4038   55.7901 C   0  0  0  1  0  0
   -2.6855  -27.7638   54.5412 C   0  0  0  1  0  0
   -3.6317  -26.9420   54.1225 O   0  0  0  1  0  0
   -1.0640  -26.8920   49.6358 C   0  0  0  1  0  0
   -2.3817  -27.7039   49.4956 C   0  0  0  1  0  0
   -3.5410  -26.9190   50.0015 N   0  0  0  1  0  0
   -4.4987  -27.4510   50.8667 C   0  0  0  1  0  0
   -5.5588  -26.6501   51.3507 C   0  0  0  1  0  0
   -6.4668  -27.1542   52.2959 C   0  0  0  1  0  0
   -6.3376  -28.4705   52.7721 C   0  0  0  1  0  0
   -7.2748  -28.9873   53.8359 C   0  0  0  1  0  0
   -8.7330  -28.6142   53.5984 C   0  0  0  1  0  0
   -9.1913  -27.6599   54.1815 O   0  0  0  1  0  0
   -9.4824  -29.3346   52.7626 O   0  0  0  1  0  0
   -6.9534  -30.3152   54.5069 C   0  0  0  1  0  0
   -5.3232  -29.2952   52.2573 C   0  0  0  1  0  0
   -4.4187  -28.7932   51.3072 C   0  0  0  1  0  0
   -3.5000  -25.4953   49.5816 C   0  0  0  1  0  0
   -2.3513  -24.7633   50.3118 C   0  0  0  1  0  0
   -6.7835  -29.0296   55.2767 C   0  0  0  1  0  0
    1.8914  -24.5557   46.7953 H   0  0
    0.4806  -25.3371   46.0517 H   0  0
    1.3491  -26.1519   47.3807 H   0  0
   -0.7853  -25.1036   48.1290 H   0  0
   -0.9053  -23.2772   46.5163 H   0  0
    0.5056  -22.4958   47.2599 H   0  0
   -1.0204  -22.6300   48.1753 H   0  0
    2.3633  -23.2138   48.4791 H   0  0
    3.6200  -22.9225   50.5952 H   0  0
    2.7464  -23.9182   52.7024 H   0  0
    0.6213  -25.1838   52.6903 H   0  0
   -0.8757  -28.1583   51.7740 H   0  0
    0.2992  -29.2172   53.7173 H   0  0
   -0.0954  -30.2882   55.9220 H   0  0
   -3.7250  -28.1775   56.3908 H   0  0
   -3.9152  -27.3368   53.1918 H   0  0
   -0.2688  -27.5733   49.9383 H   0  0
   -0.7883  -26.5078   48.6537 H   0  0
   -2.5442  -27.9490   48.4460 H   0  0
   -2.2985  -28.6293   50.0655 H   0  0
   -5.6725  -25.6293   50.9858 H   0  0
   -7.2756  -26.5218   52.6621 H   0  0
   -9.4180  -30.3160   53.1303 H   0  0
   -5.9959  -30.7122   54.1697 H   0  0
   -7.8602  -30.8438   54.8007 H   0  0
   -5.2379  -30.3276   52.5963 H   0  0
   -3.6448  -29.4463   50.9039 H   0  0
   -4.4478  -25.0166   49.8277 H   0  0
   -3.3378  -25.4397   48.5052 H   0  0
   -2.0142  -23.9336   49.6905 H   0  0
   -2.7393  -24.3388   51.2377 H   0  0
   -7.5994  -28.8717   55.9820 H   0  0
   -5.7354  -28.7392   55.3496 H   0  0
  1  2  1  0
  2  3  1  0
  2  4  1  0
  4  5  2  0
  4  9  1  0
  5  6  1  0
  6  7  2  0
  7  8  1  0
  8  9  2  0
  9 10  1  0
 10 11  1  0
 10 21  1  0
 10 36  1  0
 11 12  2  0
 11 13  1  0
 13 14  1  0
 14 15  2  0
 14 19  1  0
 15 16  1  0
 16 17  2  0
 17 18  1  0
 18 19  2  0
 19 20  1  0
 21 22  1  0
 22 23  1  0
 23 24  1  0
 23 35  1  0
 24 25  2  0
 24 34  1  0
 25 26  1  0
 26 27  2  0
 27 28  1  0
 27 33  1  0
 28 29  1  0
 28 32  1  0
 28 37  1  0
 29 30  2  0
 29 31  1  0
 32 37  1  0
 33 34  2  0
 35 36  1  0
  1 38  1  0
  1 39  1  0
  1 40  1  0
  2 41  1  0
  3 42  1  0
  3 43  1  0
  3 44  1  0
  5 45  1  0
  6 46  1  0
  7 47  1  0
  8 48  1  0
 13 49  1  0
 15 50  1  0
 16 51  1  0
 18 52  1  0
 20 53  1  0
 21 54  1  0
 21 55  1  0
 22 56  1  0
 22 57  1  0
 25 58  1  0
 26 59  1  0
 31 60  1  0
 32 61  1  0
 32 62  1  0
 33 63  1  0
 34 64  1  0
 35 65  1  0
 35 66  1  0
 36 67  1  0
 36 68  1  0
 37 69  1  0
 37 70  1  0
M  END
> <Name>
Molecule

> <AbsoluteEnergy>
73.3538

> <Clean Energy>
210.713

> <ConfNumber>
39

> <MOL_NUMBER>
1

> <RelativeEnergy>
10.0504

> <POSE_NUMBER>
47

> <LibDockScore>
98.5412

> <HotSpots>
-0.93,-23.32,46.98,A,25,3
1.67,-24.32,50.98,A,50,7
-1.73,-29.72,55.59,A,76,16

$$$$
Molecule
  SciTegic05072616053D

 70 74  0  0  0  0            999 V2000
  -12.6712  -22.3015   61.1454 C   0  0  0  1  0  0
  -11.4426  -23.0077   61.7443 C   0  0  0  1  0  0
  -10.7236  -22.0958   62.7605 C   0  0  0  1  0  0
  -11.8146  -24.3562   62.3231 C   0  0  0  1  0  0
  -12.6791  -24.3434   63.4421 C   0  0  0  1  0  0
  -13.1323  -25.5325   64.0238 C   0  0  0  1  0  0
  -12.7399  -26.7594   63.4835 C   0  0  0  1  0  0
  -11.8782  -26.7958   62.3801 C   0  0  0  1  0  0
  -11.3545  -25.6121   61.7977 C   0  0  0  1  0  0
  -10.3533  -25.7143   60.6309 C   0  0  0  1  0  0
   -9.0719  -24.9058   60.9259 C   0  0  0  1  0  0
   -8.6739  -24.7886   62.0636 O   0  0  0  1  0  0
   -8.3727  -24.3297   59.8792 N   0  0  0  1  0  0
   -7.4872  -23.2602   59.9248 C   0  0  0  1  0  0
   -6.2494  -23.4140   59.2610 C   0  0  0  1  0  0
   -5.3057  -22.3725   59.2806 C   0  0  0  1  0  0
   -5.5534  -21.2054   59.9316 N   0  0  0  1  0  0
   -6.7422  -21.0288   60.5709 C   0  0  0  1  0  0
   -7.7454  -22.0245   60.5777 C   0  0  0  1  0  0
   -8.9001  -21.7755   61.1731 O   0  0  0  1  0  0
  -11.1472  -25.2413   59.3491 C   0  0  0  1  0  0
  -10.6727  -25.7489   57.9672 C   0  0  0  1  0  0
  -10.2375  -27.1712   57.9934 N   0  0  0  1  0  0
   -9.5653  -27.7444   56.9244 C   0  0  0  1  0  0
   -9.2027  -26.9535   55.8117 C   0  0  0  1  0  0
   -8.5305  -27.5259   54.7186 C   0  0  0  1  0  0
   -8.2170  -28.8998   54.7169 C   0  0  0  1  0  0
   -7.5081  -29.5414   53.5370 C   0  0  0  1  0  0
   -6.0262  -29.8594   53.7899 C   0  0  0  1  0  0
   -5.5004  -29.4404   54.7966 O   0  0  0  1  0  0
   -5.3272  -30.5924   52.9141 O   0  0  0  1  0  0
   -8.3304  -30.5247   52.7171 C   0  0  0  1  0  0
   -8.5652  -29.6880   55.8308 C   0  0  0  1  0  0
   -9.2285  -29.1151   56.9297 C   0  0  0  1  0  0
  -10.5065  -27.9249   59.2436 C   0  0  0  1  0  0
   -9.8076  -27.1798   60.3921 C   0  0  0  1  0  0
   -7.9410  -29.1927   52.1196 C   0  0  0  1  0  0
  -12.3452  -21.3880   60.6481 H   0  0
  -13.3573  -22.0431   61.9520 H   0  0
  -13.1692  -22.9560   60.4301 H   0  0
  -10.7308  -23.2037   60.9424 H   0  0
  -11.4205  -21.8385   63.5581 H   0  0
  -10.4084  -21.1835   62.2542 H   0  0
   -9.8561  -22.6080   63.1766 H   0  0
  -12.9986  -23.3886   63.8596 H   0  0
  -13.7881  -25.5016   64.8939 H   0  0
  -13.1045  -27.6888   63.9209 H   0  0
  -11.6017  -27.7612   61.9563 H   0  0
   -8.5346  -24.7624   58.9141 H   0  0
   -6.0261  -24.3412   58.7332 H   0  0
   -4.3555  -22.5036   58.7629 H   0  0
   -6.9262  -20.0903   61.0938 H   0  0
   -9.0088  -22.5662   61.8554 H   0  0
  -11.1429  -24.1515   59.3280 H   0  0
  -12.1924  -25.5250   59.4724 H   0  0
  -11.4868  -25.6415   57.2504 H   0  0
   -9.8414  -25.1314   57.6269 H   0  0
   -9.4462  -25.8911   55.8009 H   0  0
   -8.2503  -26.9044   53.8681 H   0  0
   -5.4353  -30.0816   52.0031 H   0  0
   -9.3738  -30.5343   53.0324 H   0  0
   -7.7135  -31.3353   52.3291 H   0  0
   -8.3186  -30.7497   55.8409 H   0  0
   -9.4842  -29.7327   57.7907 H   0  0
  -10.1023  -28.9338   59.1610 H   0  0
  -11.5801  -27.9606   59.4287 H   0  0
   -9.9293  -27.7562   61.3092 H   0  0
   -8.7400  -27.1281   60.1782 H   0  0
   -7.1170  -29.2943   51.4133 H   0  0
   -8.7766  -28.4928   52.1181 H   0  0
  1  2  1  0
  2  3  1  0
  2  4  1  0
  4  5  2  0
  4  9  1  0
  5  6  1  0
  6  7  2  0
  7  8  1  0
  8  9  2  0
  9 10  1  0
 10 11  1  0
 10 21  1  0
 10 36  1  0
 11 12  2  0
 11 13  1  0
 13 14  1  0
 14 15  2  0
 14 19  1  0
 15 16  1  0
 16 17  2  0
 17 18  1  0
 18 19  2  0
 19 20  1  0
 21 22  1  0
 22 23  1  0
 23 24  1  0
 23 35  1  0
 24 25  2  0
 24 34  1  0
 25 26  1  0
 26 27  2  0
 27 28  1  0
 27 33  1  0
 28 29  1  0
 28 32  1  0
 28 37  1  0
 29 30  2  0
 29 31  1  0
 32 37  1  0
 33 34  2  0
 35 36  1  0
  1 38  1  0
  1 39  1  0
  1 40  1  0
  2 41  1  0
  3 42  1  0
  3 43  1  0
  3 44  1  0
  5 45  1  0
  6 46  1  0
  7 47  1  0
  8 48  1  0
 13 49  1  0
 15 50  1  0
 16 51  1  0
 18 52  1  0
 20 53  1  0
 21 54  1  0
 21 55  1  0
 22 56  1  0
 22 57  1  0
 25 58  1  0
 26 59  1  0
 31 60  1  0
 32 61  1  0
 32 62  1  0
 33 63  1  0
 34 64  1  0
 35 65  1  0
 35 66  1  0
 36 67  1  0
 36 68  1  0
 37 69  1  0
 37 70  1  0
M  END
> <Name>
Molecule

> <AbsoluteEnergy>
75.6462

> <Clean Energy>
210.713

> <ConfNumber>
50

> <MOL_NUMBER>
1

> <RelativeEnergy>
12.3429

> <POSE_NUMBER>
48

> <LibDockScore>
95.3342

> <HotSpots>
-6.73,-23.12,59.38,A,84,15
-6.93,-20.92,60.98,A,90,18
-6.33,-26.32,51.98,A,57,37

$$$$
Molecule
  SciTegic05072616053D

 70 74  0  0  0  0            999 V2000
   -3.1318  -28.9639   48.2196 C   0  0  0  1  0  0
   -2.3164  -28.1097   49.2132 C   0  0  0  1  0  0
   -0.8302  -28.5161   49.1900 C   0  0  0  1  0  0
   -2.8879  -28.1601   50.6145 C   0  0  0  1  0  0
   -3.0428  -29.4429   51.1890 C   0  0  0  1  0  0
   -3.4844  -29.6009   52.5049 C   0  0  0  1  0  0
   -3.7639  -28.4772   53.2798 C   0  0  0  1  0  0
   -3.6315  -27.1968   52.7278 C   0  0  0  1  0  0
   -3.2542  -26.9968   51.3730 C   0  0  0  1  0  0
   -3.2328  -25.5702   50.7719 C   0  0  0  1  0  0
   -1.7963  -25.2675   50.3013 C   0  0  0  1  0  0
   -0.8780  -25.7711   50.9137 O   0  0  0  1  0  0
   -1.5273  -24.4538   49.2044 N   0  0  0  1  0  0
   -0.3677  -24.5100   48.4322 C   0  0  0  1  0  0
    0.5196  -25.6074   48.5400 C   0  0  0  1  0  0
    1.6869  -25.6554   47.7615 C   0  0  0  1  0  0
    1.9889  -24.6666   46.8782 N   0  0  0  1  0  0
    1.1460  -23.6070   46.7396 C   0  0  0  1  0  0
   -0.0454  -23.4920   47.4942 C   0  0  0  1  0  0
   -0.8307  -22.4423   47.3112 O   0  0  0  1  0  0
   -4.3039  -25.4637   49.6082 C   0  0  0  1  0  0
   -5.7485  -25.1195   50.0474 C   0  0  0  1  0  0
   -5.9098  -25.4164   51.4859 N   0  0  0  1  0  0
   -6.6008  -26.5212   51.9769 C   0  0  0  1  0  0
   -6.5358  -27.7539   51.2861 C   0  0  0  1  0  0
   -7.0921  -28.9160   51.8408 C   0  0  0  1  0  0
   -7.7173  -28.8670   53.0979 C   0  0  0  1  0  0
   -8.1803  -30.1505   53.7488 C   0  0  0  1  0  0
   -7.1199  -30.7642   54.6661 C   0  0  0  1  0  0
   -5.9502  -30.6875   54.3605 O   0  0  0  1  0  0
   -7.4995  -31.3744   55.7888 O   0  0  0  1  0  0
   -9.6515  -30.3166   54.0967 C   0  0  0  1  0  0
   -7.8816  -27.6303   53.7457 C   0  0  0  1  0  0
   -7.3358  -26.4616   53.1841 C   0  0  0  1  0  0
   -5.1010  -24.5073   52.3387 C   0  0  0  1  0  0
   -3.6365  -24.4434   51.7978 C   0  0  0  1  0  0
   -9.0578  -31.1011   52.9512 C   0  0  0  1  0  0
   -3.0374  -30.0143   48.4950 H   0  0
   -2.7307  -28.8198   47.2164 H   0  0
   -4.1805  -28.6678   48.2447 H   0  0
   -2.3880  -27.0718   48.8879 H   0  0
   -0.4399  -28.3741   48.1822 H   0  0
   -0.7465  -29.5686   49.4608 H   0  0
   -0.2647  -27.9067   49.8950 H   0  0
   -2.8130  -30.3262   50.5931 H   0  0
   -3.6098  -30.5994   52.9238 H   0  0
   -4.0853  -28.5945   54.3147 H   0  0
   -3.8238  -26.3276   53.3568 H   0  0
   -2.2670  -23.7298   48.9331 H   0  0
    0.2954  -26.4198   49.2313 H   0  0
    2.3648  -26.5024   47.8672 H   0  0
    1.3965  -22.8228   46.0252 H   0  0
   -0.9254  -22.0239   48.2696 H   0  0
   -3.9702  -24.7076   48.8976 H   0  0
   -4.3245  -26.4094   49.0667 H   0  0
   -5.9393  -24.0608   49.8718 H   0  0
   -6.4563  -25.7165   49.4723 H   0  0
   -6.0482  -27.8013   50.3124 H   0  0
   -7.0392  -29.8584   51.2957 H   0  0
   -8.1771  -32.1139   55.4782 H   0  0
  -10.2442  -29.4734   53.7421 H   0  0
   -9.7849  -30.9372   54.9828 H   0  0
   -8.4327  -27.5768   54.6846 H   0  0
   -7.4803  -25.5032   53.6828 H   0  0
   -5.5377  -23.5088   52.3209 H   0  0
   -5.0928  -24.8804   53.3628 H   0  0
   -2.9529  -24.4854   52.6458 H   0  0
   -3.4849  -23.4728   51.3256 H   0  0
   -8.8764  -32.1400   53.2267 H   0  0
   -9.3341  -30.6757   51.9864 H   0  0
  1  2  1  0
  2  3  1  0
  2  4  1  0
  4  5  2  0
  4  9  1  0
  5  6  1  0
  6  7  2  0
  7  8  1  0
  8  9  2  0
  9 10  1  0
 10 11  1  0
 10 21  1  0
 10 36  1  0
 11 12  2  0
 11 13  1  0
 13 14  1  0
 14 15  2  0
 14 19  1  0
 15 16  1  0
 16 17  2  0
 17 18  1  0
 18 19  2  0
 19 20  1  0
 21 22  1  0
 22 23  1  0
 23 24  1  0
 23 35  1  0
 24 25  2  0
 24 34  1  0
 25 26  1  0
 26 27  2  0
 27 28  1  0
 27 33  1  0
 28 29  1  0
 28 32  1  0
 28 37  1  0
 29 30  2  0
 29 31  1  0
 32 37  1  0
 33 34  2  0
 35 36  1  0
  1 38  1  0
  1 39  1  0
  1 40  1  0
  2 41  1  0
  3 42  1  0
  3 43  1  0
  3 44  1  0
  5 45  1  0
  6 46  1  0
  7 47  1  0
  8 48  1  0
 13 49  1  0
 15 50  1  0
 16 51  1  0
 18 52  1  0
 20 53  1  0
 21 54  1  0
 21 55  1  0
 22 56  1  0
 22 57  1  0
 25 58  1  0
 26 59  1  0
 31 60  1  0
 32 61  1  0
 32 62  1  0
 33 63  1  0
 34 64  1  0
 35 65  1  0
 35 66  1  0
 36 67  1  0
 36 68  1  0
 37 69  1  0
 37 70  1  0
M  END
> <Name>
Molecule

> <AbsoluteEnergy>
76.2353

> <Clean Energy>
210.713

> <ConfNumber>
56

> <MOL_NUMBER>
1

> <RelativeEnergy>
12.9319

> <POSE_NUMBER>
49

> <LibDockScore>
95.1562

> <HotSpots>
-1.93,-29.12,49.19,A,34,3
1.27,-23.52,47.59,A,27,18
-7.93,-28.32,52.38,A,59,26

$$$$
Molecule
  SciTegic05072616053D

 70 74  0  0  0  0            999 V2000
   -2.4402  -26.2875   46.0069 C   0  0  0  1  0  0
   -2.0745  -25.8229   47.4297 C   0  0  0  1  0  0
   -0.8421  -26.5730   47.9697 C   0  0  0  1  0  0
   -1.8983  -24.3236   47.5136 C   0  0  0  1  0  0
   -0.8991  -23.7622   46.6887 C   0  0  0  1  0  0
   -0.6576  -22.3844   46.6696 C   0  0  0  1  0  0
   -1.4167  -21.5386   47.4801 C   0  0  0  1  0  0
   -2.4089  -22.0734   48.3124 C   0  0  0  1  0  0
   -2.6719  -23.4684   48.3646 C   0  0  0  1  0  0
   -3.7588  -23.9955   49.3102 C   0  0  0  1  0  0
   -3.2242  -25.1079   50.2272 C   0  0  0  1  0  0
   -3.8041  -26.1710   50.2553 O   0  0  0  1  0  0
   -2.1205  -24.8812   51.0344 N   0  0  0  1  0  0
   -1.6557  -25.7094   52.0525 C   0  0  0  1  0  0
   -1.1500  -25.0937   53.2204 C   0  0  0  1  0  0
   -0.7431  -25.8785   54.3135 C   0  0  0  1  0  0
   -0.8179  -27.2362   54.2757 N   0  0  0  1  0  0
   -1.2594  -27.8548   53.1468 C   0  0  0  1  0  0
   -1.6627  -27.1303   52.0031 C   0  0  0  1  0  0
   -2.0259  -27.7850   50.9140 O   0  0  0  1  0  0
   -4.3358  -22.9086   50.2832 C   0  0  0  1  0  0
   -5.3665  -23.4641   51.2976 C   0  0  0  1  0  0
   -6.1545  -24.5870   50.7081 N   0  0  0  1  0  0
   -6.6014  -25.6785   51.4491 C   0  0  0  1  0  0
   -5.8292  -26.1913   52.5188 C   0  0  0  1  0  0
   -6.2509  -27.3242   53.2312 C   0  0  0  1  0  0
   -7.4491  -27.9714   52.8890 C   0  0  0  1  0  0
   -7.8664  -29.2249   53.6296 C   0  0  0  1  0  0
   -6.9887  -30.4399   53.3165 C   0  0  0  1  0  0
   -6.7989  -31.2603   54.1824 O   0  0  0  1  0  0
   -6.4402  -30.5957   52.1083 O   0  0  0  1  0  0
   -8.4079  -29.0590   55.0420 C   0  0  0  1  0  0
   -8.2415  -27.4520   51.8488 C   0  0  0  1  0  0
   -7.8254  -26.3132   51.1390 C   0  0  0  1  0  0
   -6.3585  -24.4804   49.2375 C   0  0  0  1  0  0
   -5.0038  -24.4738   48.4782 C   0  0  0  1  0  0
   -9.3367  -29.4823   53.9295 C   0  0  0  1  0  0
   -2.6468  -27.3574   46.0327 H   0  0
   -1.5876  -26.1071   45.3522 H   0  0
   -3.3133  -25.7461   45.6427 H   0  0
   -2.9180  -26.0752   48.0723 H   0  0
   -0.0024  -26.3903   47.2992 H   0  0
   -1.0616  -27.6406   47.9797 H   0  0
   -0.5994  -26.2310   48.9758 H   0  0
   -0.3029  -24.4167   46.0529 H   0  0
    0.1194  -21.9734   46.0251 H   0  0
   -1.2378  -20.4635   47.4655 H   0  0
   -2.9955  -21.4001   48.9374 H   0  0
   -1.5711  -23.9802   50.8576 H   0  0
   -1.0754  -24.0075   53.2734 H   0  0
   -0.3601  -25.3893   55.2091 H   0  0
   -1.3032  -28.9437   53.1244 H   0  0
   -1.3928  -27.4075   50.1662 H   0  0
   -3.5116  -22.4540   50.8328 H   0  0
   -4.8102  -22.1232   49.6948 H   0  0
   -6.0473  -22.6658   51.5932 H   0  0
   -4.8419  -23.8214   52.1837 H   0  0
   -4.8955  -25.7001   52.7925 H   0  0
   -5.6454  -27.7037   54.0543 H   0  0
   -5.8968  -29.7103   51.9557 H   0  0
   -8.5405  -28.0080   55.2987 H   0  0
   -8.1311  -29.9004   55.6772 H   0  0
   -9.1838  -27.9360   51.5921 H   0  0
   -8.4527  -25.9153   50.3414 H   0  0
   -6.9564  -25.3255   48.8965 H   0  0
   -6.8981  -23.5598   49.0154 H   0  0
   -5.1020  -23.8340   47.6012 H   0  0
   -4.8098  -25.4808   48.1088 H   0  0
   -9.5553  -30.5493   53.9720 H   0  0
   -9.9634  -28.6567   53.5924 H   0  0
  1  2  1  0
  2  3  1  0
  2  4  1  0
  4  5  2  0
  4  9  1  0
  5  6  1  0
  6  7  2  0
  7  8  1  0
  8  9  2  0
  9 10  1  0
 10 11  1  0
 10 21  1  0
 10 36  1  0
 11 12  2  0
 11 13  1  0
 13 14  1  0
 14 15  2  0
 14 19  1  0
 15 16  1  0
 16 17  2  0
 17 18  1  0
 18 19  2  0
 19 20  1  0
 21 22  1  0
 22 23  1  0
 23 24  1  0
 23 35  1  0
 24 25  2  0
 24 34  1  0
 25 26  1  0
 26 27  2  0
 27 28  1  0
 27 33  1  0
 28 29  1  0
 28 32  1  0
 28 37  1  0
 29 30  2  0
 29 31  1  0
 32 37  1  0
 33 34  2  0
 35 36  1  0
  1 38  1  0
  1 39  1  0
  1 40  1  0
  2 41  1  0
  3 42  1  0
  3 43  1  0
  3 44  1  0
  5 45  1  0
  6 46  1  0
  7 47  1  0
  8 48  1  0
 13 49  1  0
 15 50  1  0
 16 51  1  0
 18 52  1  0
 20 53  1  0
 21 54  1  0
 21 55  1  0
 22 56  1  0
 22 57  1  0
 25 58  1  0
 26 59  1  0
 31 60  1  0
 32 61  1  0
 32 62  1  0
 33 63  1  0
 34 64  1  0
 35 65  1  0
 35 66  1  0
 36 67  1  0
 36 68  1  0
 37 69  1  0
 37 70  1  0
M  END
> <Name>
Molecule

> <AbsoluteEnergy>
69.7847

> <Clean Energy>
210.713

> <ConfNumber>
18

> <MOL_NUMBER>
1

> <RelativeEnergy>
6.48134

> <POSE_NUMBER>
50

> <LibDockScore>
87.212

> <HotSpots>
-2.93,-26.32,45.98,A,15,1
-2.53,-22.32,48.19,A,29,8
-5.13,-23.32,51.38,A,54,22

$$$$
Molecule
  SciTegic05072616053D

 70 74  0  0  0  0            999 V2000
   -8.8354  -28.1155   54.5223 C   0  0  0  1  0  0
   -9.5085  -29.4218   54.0511 C   0  0  0  1  0  0
   -9.1996  -30.6701   54.9015 C   0  0  0  1  0  0
   -9.5505  -29.5671   52.5345 C   0  0  0  1  0  0
  -10.8657  -29.6632   52.0141 C   0  0  0  1  0  0
  -11.1179  -29.8257   50.6513 C   0  0  0  1  0  0
  -10.0500  -29.9010   49.7620 C   0  0  0  1  0  0
   -8.7404  -29.8034   50.2384 C   0  0  0  1  0  0
   -8.4337  -29.6106   51.6164 C   0  0  0  1  0  0
   -6.9430  -29.4708   52.0157 C   0  0  0  1  0  0
   -6.6229  -30.5017   53.1167 C   0  0  0  1  0  0
   -7.1833  -31.5761   53.0889 O   0  0  0  1  0  0
   -5.7084  -30.2261   54.1190 N   0  0  0  1  0  0
   -5.3538  -31.0286   55.2012 C   0  0  0  1  0  0
   -6.1127  -32.1510   55.6054 C   0  0  0  1  0  0
   -5.6939  -32.9270   56.7017 C   0  0  0  1  0  0
   -4.5672  -32.6195   57.4003 N   0  0  0  1  0  0
   -3.8268  -31.5363   57.0386 C   0  0  0  1  0  0
   -4.1879  -30.7163   55.9475 C   0  0  0  1  0  0
   -3.4396  -29.6734   55.6273 O   0  0  0  1  0  0
   -5.9781  -29.8442   50.8336 C   0  0  0  1  0  0
   -4.5012  -29.4612   50.9992 C   0  0  0  1  0  0
   -4.3875  -27.9973   51.1942 N   0  0  0  1  0  0
   -3.5876  -27.2159   50.3696 C   0  0  0  1  0  0
   -3.9114  -25.8670   50.1058 C   0  0  0  1  0  0
   -3.1241  -25.1020   49.2304 C   0  0  0  1  0  0
   -1.9990  -25.6732   48.6073 C   0  0  0  1  0  0
   -1.1841  -24.8661   47.6249 C   0  0  0  1  0  0
   -1.1142  -25.5278   46.2547 C   0  0  0  1  0  0
   -0.1546  -25.3284   45.5450 O   0  0  0  1  0  0
   -2.1165  -26.3186   45.8704 O   0  0  0  1  0  0
    0.0107  -24.0737   48.1348 C   0  0  0  1  0  0
   -1.6483  -27.0034   48.8930 C   0  0  0  1  0  0
   -2.4349  -27.7691   49.7673 C   0  0  0  1  0  0
   -5.1908  -27.4323   52.3091 C   0  0  0  1  0  0
   -6.6464  -27.9601   52.3395 C   0  0  0  1  0  0
   -1.2298  -23.3467   47.6754 C   0  0  0  1  0  0
   -7.7610  -28.2991   54.5298 H   0  0
   -9.1557  -27.9487   55.5507 H   0  0
   -9.0891  -27.2684   53.8850 H   0  0
  -10.5669  -29.3201   54.2912 H   0  0
   -9.5112  -30.4424   55.9209 H   0  0
   -8.1165  -30.7927   54.9000 H   0  0
   -9.7007  -31.5609   54.5227 H   0  0
  -11.7091  -29.6083   52.7023 H   0  0
  -12.1428  -29.8931   50.2863 H   0  0
  -10.2350  -30.0358   48.6963 H   0  0
   -7.9187  -29.8779   49.5261 H   0  0
   -5.2128  -29.2800   54.0545 H   0  0
   -7.0230  -32.4153   55.0672 H   0  0
   -6.2849  -33.7936   56.9980 H   0  0
   -2.9291  -31.2949   57.6078 H   0  0
   -4.1017  -28.8587   55.6472 H   0  0
   -6.0360  -30.9201   50.6686 H   0  0
   -6.3520  -29.3778   49.9221 H   0  0
   -4.0875  -29.9757   51.8665 H   0  0
   -3.9472  -29.7520   50.1066 H   0  0
   -4.7798  -25.4159   50.5858 H   0  0
   -3.3852  -24.0623   49.0328 H   0  0
   -2.9781  -25.7222   45.9369 H   0  0
    0.8051  -24.0241   47.3901 H   0  0
    0.0778  -24.1077   49.2222 H   0  0
   -0.7623  -27.4421   48.4340 H   0  0
   -2.1543  -28.7999   49.9838 H   0  0
   -5.2102  -26.3464   52.2166 H   0  0
   -4.7055  -27.6779   53.2537 H   0  0
   -7.0578  -27.7416   53.3250 H   0  0
   -7.2350  -27.3498   51.6546 H   0  0
   -1.8234  -22.9920   48.5179 H   0  0
   -1.0969  -22.9099   46.6856 H   0  0
  1  2  1  0
  2  3  1  0
  2  4  1  0
  4  5  2  0
  4  9  1  0
  5  6  1  0
  6  7  2  0
  7  8  1  0
  8  9  2  0
  9 10  1  0
 10 11  1  0
 10 21  1  0
 10 36  1  0
 11 12  2  0
 11 13  1  0
 13 14  1  0
 14 15  2  0
 14 19  1  0
 15 16  1  0
 16 17  2  0
 17 18  1  0
 18 19  2  0
 19 20  1  0
 21 22  1  0
 22 23  1  0
 23 24  1  0
 23 35  1  0
 24 25  2  0
 24 34  1  0
 25 26  1  0
 26 27  2  0
 27 28  1  0
 27 33  1  0
 28 29  1  0
 28 32  1  0
 28 37  1  0
 29 30  2  0
 29 31  1  0
 32 37  1  0
 33 34  2  0
 35 36  1  0
  1 38  1  0
  1 39  1  0
  1 40  1  0
  2 41  1  0
  3 42  1  0
  3 43  1  0
  3 44  1  0
  5 45  1  0
  6 46  1  0
  7 47  1  0
  8 48  1  0
 13 49  1  0
 15 50  1  0
 16 51  1  0
 18 52  1  0
 20 53  1  0
 21 54  1  0
 21 55  1  0
 22 56  1  0
 22 57  1  0
 25 58  1  0
 26 59  1  0
 31 60  1  0
 32 61  1  0
 32 62  1  0
 33 63  1  0
 34 64  1  0
 35 65  1  0
 35 66  1  0
 36 67  1  0
 36 68  1  0
 37 69  1  0
 37 70  1  0
M  END
> <Name>
Molecule

> <AbsoluteEnergy>
78.3674

> <Clean Energy>
210.713

> <ConfNumber>
74

> <MOL_NUMBER>
1

> <RelativeEnergy>
15.0641

> <POSE_NUMBER>
51

> <LibDockScore>
83.5855

> <HotSpots>
-9.53,-30.12,52.78,A,62,5
-4.13,-31.12,56.59,A,79,15
-0.93,-23.32,46.98,A,25,37

$$$$
Molecule
  SciTegic05072616053D

 69 73  0  0  0  0            999 V2000
    0.0697  -24.7665   46.7309 C   0  0  0  1  0  0
   -0.5047  -23.8872   47.8568 C   0  0  0  1  0  0
   -0.9079  -22.4978   47.3170 C   0  0  0  1  0  0
    0.4489  -23.7999   49.0303 C   0  0  0  1  0  0
    1.6872  -23.1605   48.7891 C   0  0  0  1  0  0
    2.6601  -23.0595   49.7879 C   0  0  0  1  0  0
    2.4185  -23.6092   51.0477 C   0  0  0  1  0  0
    1.1974  -24.2420   51.3116 C   0  0  0  1  0  0
    0.1689  -24.3277   50.3361 C   0  0  0  1  0  0
   -1.1753  -24.9892   50.7002 C   0  0  0  1  0  0
   -2.3604  -24.0312   50.4481 C   0  0  0  1  0  0
   -2.1636  -22.8490   50.2707 O   0  0  0  1  0  0
   -3.6498  -24.5390   50.4335 N   0  0  0  1  0  0
   -4.8633  -23.8610   50.3803 C   0  0  0  1  0  0
   -4.9862  -22.4512   50.3251 C   0  0  0  1  0  0
   -6.2667  -21.8713   50.2854 C   0  0  0  1  0  0
   -7.4032  -22.7001   50.2922 C   0  0  0  1  0  0
   -7.2899  -24.0556   50.3316 N   0  0  0  1  0  0
   -6.0547  -24.6297   50.3725 C   0  0  0  1  0  0
   -1.2978  -25.3349   52.2321 C   0  0  0  1  0  0
   -0.8392  -26.7623   52.5764 C   0  0  0  1  0  0
   -1.7811  -27.7126   51.9333 N   0  0  0  1  0  0
   -2.4261  -28.7003   52.6642 C   0  0  0  1  0  0
   -2.1538  -28.8854   54.0396 C   0  0  0  1  0  0
   -2.8294  -29.8779   54.7721 C   0  0  0  1  0  0
   -3.7906  -30.6912   54.1463 C   0  0  0  1  0  0
   -4.5366  -31.7404   54.9384 C   0  0  0  1  0  0
   -3.9916  -33.1493   54.7385 C   0  0  0  1  0  0
   -3.2746  -33.6383   55.5833 O   0  0  0  1  0  0
   -4.3265  -33.8149   53.6332 O   0  0  0  1  0  0
   -5.1342  -31.3658   56.2884 C   0  0  0  1  0  0
   -6.0410  -31.5878   55.1037 C   0  0  0  1  0  0
   -4.0582  -30.5181   52.7745 C   0  0  0  1  0  0
   -3.3803  -29.5337   52.0400 C   0  0  0  1  0  0
   -2.0428  -27.5178   50.4786 C   0  0  0  1  0  0
   -1.2526  -26.3305   49.8714 C   0  0  0  1  0  0
    0.9444  -24.2723   46.3080 H   0  0
   -0.6854  -24.8830   45.9535 H   0  0
    0.3502  -25.7435   47.1244 H   0  0
   -1.4125  -24.3602   48.2314 H   0  0
   -1.6579  -22.6260   46.5366 H   0  0
   -0.0282  -22.0153   46.8911 H   0  0
   -1.3126  -21.8856   48.1229 H   0  0
    1.8870  -22.7379   47.8044 H   0  0
    3.6036  -22.5534   49.5835 H   0  0
    3.1795  -23.5461   51.8255 H   0  0
    1.0314  -24.6818   52.2950 H   0  0
   -3.7223  -25.6060   50.4681 H   0  0
   -4.0966  -21.8215   50.3135 H   0  0
   -6.3777  -20.7876   50.2496 H   0  0
   -8.3944  -22.2475   50.2654 H   0  0
   -5.9800  -25.7168   50.4002 H   0  0
   -0.6994  -24.6254   52.8037 H   0  0
   -2.3363  -25.2150   52.5407 H   0  0
    0.1674  -26.9270   52.1921 H   0  0
   -0.8566  -26.9037   53.6571 H   0  0
   -1.4156  -28.2548   54.5351 H   0  0
   -2.6068  -30.0173   55.8300 H   0  0
   -4.0261  -33.1982   52.8382 H   0  0
   -5.0039  -30.3050   56.5026 H   0  0
   -5.1457  -32.2167   56.9695 H   0  0
   -6.5383  -32.5565   55.1534 H   0  0
   -6.3952  -30.6456   54.6856 H   0  0
   -4.7953  -31.1518   52.2813 H   0  0
   -3.5920  -29.4109   50.9778 H   0  0
   -1.7749  -28.4304   49.9462 H   0  0
   -3.1089  -27.3458   50.3304 H   0  0
   -1.6806  -26.1033   48.8950 H   0  0
   -0.2355  -26.6680   49.6723 H   0  0
  1  2  1  0
  2  3  1  0
  2  4  1  0
  4  5  2  0
  4  9  1  0
  5  6  1  0
  6  7  2  0
  7  8  1  0
  8  9  2  0
  9 10  1  0
 10 11  1  0
 10 20  1  0
 10 36  1  0
 11 12  2  0
 11 13  1  0
 13 14  1  0
 14 15  2  0
 14 19  1  0
 15 16  1  0
 16 17  2  0
 17 18  1  0
 18 19  2  0
 20 21  1  0
 21 22  1  0
 22 23  1  0
 22 35  1  0
 23 24  2  0
 23 34  1  0
 24 25  1  0
 25 26  2  0
 26 27  1  0
 26 33  1  0
 27 28  1  0
 27 31  1  0
 27 32  1  0
 28 29  2  0
 28 30  1  0
 31 32  1  0
 33 34  2  0
 35 36  1  0
  1 37  1  0
  1 38  1  0
  1 39  1  0
  2 40  1  0
  3 41  1  0
  3 42  1  0
  3 43  1  0
  5 44  1  0
  6 45  1  0
  7 46  1  0
  8 47  1  0
 13 48  1  0
 15 49  1  0
 16 50  1  0
 17 51  1  0
 19 52  1  0
 20 53  1  0
 20 54  1  0
 21 55  1  0
 21 56  1  0
 24 57  1  0
 25 58  1  0
 30 59  1  0
 31 60  1  0
 31 61  1  0
 32 62  1  0
 32 63  1  0
 33 64  1  0
 34 65  1  0
 35 66  1  0
 35 67  1  0
 36 68  1  0
 36 69  1  0
M  END
> <Name>
Molecule

> <AbsoluteEnergy>
69.5547

> <Clean Energy>
200.984

> <ConfNumber>
28

> <MOL_NUMBER>
2

> <RelativeEnergy>
8.05157

> <POSE_NUMBER>
1

> <LibDockScore>
141.4601

> <HotSpots>
0.27,-24.92,46.38,A,19,1
1.67,-24.32,50.98,A,50,8
-4.13,-31.12,56.59,A,79,31

$$$$
Molecule
  SciTegic05072616053D

 69 73  0  0  0  0            999 V2000
    2.1764  -22.6022   49.8115 C   0  0  0  1  0  0
    1.5952  -24.0336   49.8043 C   0  0  0  1  0  0
    2.3933  -24.9826   50.7208 C   0  0  0  1  0  0
    1.4387  -24.6142   48.4105 C   0  0  0  1  0  0
    2.6424  -24.6660   47.6631 C   0  0  0  1  0  0
    2.6750  -25.1193   46.3395 C   0  0  0  1  0  0
    1.4952  -25.5456   45.7310 C   0  0  0  1  0  0
    0.2971  -25.5386   46.4544 C   0  0  0  1  0  0
    0.2227  -25.1074   47.8062 C   0  0  0  1  0  0
   -1.1845  -25.2684   48.4362 C   0  0  0  1  0  0
   -2.2729  -24.6151   47.5552 C   0  0  0  1  0  0
   -3.1990  -25.3086   47.1927 O   0  0  0  1  0  0
   -2.2107  -23.2717   47.1877 N   0  0  0  1  0  0
   -3.1494  -22.5526   46.4465 C   0  0  0  1  0  0
   -4.4271  -23.0708   46.1227 C   0  0  0  1  0  0
   -5.3264  -22.2877   45.3782 C   0  0  0  1  0  0
   -4.9486  -20.9962   44.9736 C   0  0  0  1  0  0
   -3.7236  -20.4835   45.2843 N   0  0  0  1  0  0
   -2.8407  -21.2366   46.0073 C   0  0  0  1  0  0
   -1.4360  -24.6262   49.8272 C   0  0  0  1  0  0
   -2.7899  -24.9981   50.4770 C   0  0  0  1  0  0
   -2.9460  -26.4712   50.6687 N   0  0  0  1  0  0
   -3.9919  -27.0219   51.4231 C   0  0  0  1  0  0
   -5.1020  -26.2248   51.7922 C   0  0  0  1  0  0
   -6.2094  -26.7852   52.4575 C   0  0  0  1  0  0
   -6.2456  -28.1590   52.7620 C   0  0  0  1  0  0
   -7.5011  -28.7925   53.3398 C   0  0  0  1  0  0
   -7.5791  -28.8734   54.8672 C   0  0  0  1  0  0
   -6.8411  -29.6390   55.4542 O   0  0  0  1  0  0
   -8.4749  -28.1196   55.5296 O   0  0  0  1  0  0
   -8.0669  -29.9559   52.5309 C   0  0  0  1  0  0
   -8.8243  -28.6541   52.5963 C   0  0  0  1  0  0
   -5.1091  -28.9464   52.4881 C   0  0  0  1  0  0
   -3.9956  -28.3843   51.8245 C   0  0  0  1  0  0
   -1.9264  -27.3290   50.0017 C   0  0  0  1  0  0
   -1.4687  -26.8205   48.6086 C   0  0  0  1  0  0
    3.2122  -22.6490   49.4754 H   0  0
    2.1543  -22.2262   50.8344 H   0  0
    1.5972  -21.9501   49.1578 H   0  0
    0.5880  -23.9426   50.2108 H   0  0
    2.3691  -24.5837   51.7349 H   0  0
    3.4270  -25.0064   50.3759 H   0  0
    1.9659  -25.9851   50.6999 H   0  0
    3.5709  -24.3429   48.1339 H   0  0
    3.6153  -25.1389   45.7886 H   0  0
    1.5059  -25.8834   44.6947 H   0  0
   -0.6143  -25.8771   45.9616 H   0  0
   -1.3456  -22.7310   47.5103 H   0  0
   -4.7116  -24.0712   46.4489 H   0  0
   -6.3094  -22.6794   45.1168 H   0  0
   -5.6498  -20.3910   44.3990 H   0  0
   -1.8673  -20.8135   46.2552 H   0  0
   -1.3834  -23.5420   49.7275 H   0  0
   -0.6324  -24.9246   50.5005 H   0  0
   -3.6008  -24.6351   49.8455 H   0  0
   -2.8676  -24.5044   51.4457 H   0  0
   -5.0996  -25.1603   51.5577 H   0  0
   -7.0477  -26.1482   52.7397 H   0  0
   -9.4025  -28.3744   55.1086 H   0  0
   -8.5103  -30.7132   53.1775 H   0  0
   -7.5452  -30.0716   51.5809 H   0  0
   -8.7091  -28.0744   51.6804 H   0  0
   -9.6729  -28.7152   53.2777 H   0  0
   -5.0892  -29.9937   52.7896 H   0  0
   -3.1250  -29.0065   51.6172 H   0  0
   -2.3330  -28.3343   49.8912 H   0  0
   -1.0543  -27.4037   50.6512 H   0  0
   -0.5672  -27.3659   48.3294 H   0  0
   -2.2231  -27.1119   47.8778 H   0  0
  1  2  1  0
  2  3  1  0
  2  4  1  0
  4  5  2  0
  4  9  1  0
  5  6  1  0
  6  7  2  0
  7  8  1  0
  8  9  2  0
  9 10  1  0
 10 11  1  0
 10 20  1  0
 10 36  1  0
 11 12  2  0
 11 13  1  0
 13 14  1  0
 14 15  2  0
 14 19  1  0
 15 16  1  0
 16 17  2  0
 17 18  1  0
 18 19  2  0
 20 21  1  0
 21 22  1  0
 22 23  1  0
 22 35  1  0
 23 24  2  0
 23 34  1  0
 24 25  1  0
 25 26  2  0
 26 27  1  0
 26 33  1  0
 27 28  1  0
 27 31  1  0
 27 32  1  0
 28 29  2  0
 28 30  1  0
 31 32  1  0
 33 34  2  0
 35 36  1  0
  1 37  1  0
  1 38  1  0
  1 39  1  0
  2 40  1  0
  3 41  1  0
  3 42  1  0
  3 43  1  0
  5 44  1  0
  6 45  1  0
  7 46  1  0
  8 47  1  0
 13 48  1  0
 15 49  1  0
 16 50  1  0
 17 51  1  0
 19 52  1  0
 20 53  1  0
 20 54  1  0
 21 55  1  0
 21 56  1  0
 24 57  1  0
 25 58  1  0
 30 59  1  0
 31 60  1  0
 31 61  1  0
 32 62  1  0
 32 63  1  0
 33 64  1  0
 34 65  1  0
 35 66  1  0
 35 67  1  0
 36 68  1  0
 36 69  1  0
M  END
> <Name>
Molecule

> <AbsoluteEnergy>
77.7897

> <Clean Energy>
200.984

> <ConfNumber>
84

> <MOL_NUMBER>
2

> <RelativeEnergy>
16.2865

> <POSE_NUMBER>
2

> <LibDockScore>
141.3383

> <HotSpots>
2.67,-23.92,48.98,A,32,5
1.87,-24.92,46.78,A,22,7
-2.53,-21.12,45.98,A,16,19

$$$$
Molecule
  SciTegic05072616053D

 69 73  0  0  0  0            999 V2000
    2.1710  -22.6850   49.7972 C   0  0  0  1  0  0
    1.6119  -24.1270   49.7903 C   0  0  0  1  0  0
    2.6087  -25.0860   50.4686 C   0  0  0  1  0  0
    1.2078  -24.6478   48.4282 C   0  0  0  1  0  0
    2.2049  -24.6310   47.4172 C   0  0  0  1  0  0
    1.9525  -25.0984   46.1233 C   0  0  0  1  0  0
    0.6933  -25.6052   45.8034 C   0  0  0  1  0  0
   -0.3063  -25.6382   46.7788 C   0  0  0  1  0  0
   -0.0961  -25.1647   48.1007 C   0  0  0  1  0  0
   -1.3432  -25.3014   48.9991 C   0  0  0  1  0  0
   -2.5288  -24.5773   48.3240 C   0  0  0  1  0  0
   -3.6314  -25.0736   48.3801 O   0  0  0  1  0  0
   -2.3124  -23.3720   47.6586 N   0  0  0  1  0  0
   -3.1892  -22.6671   46.8379 C   0  0  0  1  0  0
   -4.5119  -23.0874   46.5598 C   0  0  0  1  0  0
   -5.3200  -22.3087   45.7137 C   0  0  0  1  0  0
   -4.8083  -21.1193   45.1653 C   0  0  0  1  0  0
   -3.5403  -20.7041   45.4332 N   0  0  0  1  0  0
   -2.7442  -21.4533   46.2507 C   0  0  0  1  0  0
   -1.3556  -24.6854   50.4331 C   0  0  0  1  0  0
   -2.6759  -24.9767   51.2016 C   0  0  0  1  0  0
   -3.0409  -26.4224   51.1627 N   0  0  0  1  0  0
   -4.2592  -26.9044   51.6301 C   0  0  0  1  0  0
   -5.3523  -26.0313   51.8217 C   0  0  0  1  0  0
   -6.5944  -26.5300   52.2538 C   0  0  0  1  0  0
   -6.7625  -27.9062   52.5138 C   0  0  0  1  0  0
   -8.1056  -28.4627   52.9518 C   0  0  0  1  0  0
   -8.7991  -29.2987   51.8725 C   0  0  0  1  0  0
   -8.8557  -30.5046   51.9934 O   0  0  0  1  0  0
   -9.3256  -28.6737   50.8157 O   0  0  0  1  0  0
   -8.2556  -28.8830   54.4076 C   0  0  0  1  0  0
   -8.9838  -27.6608   53.9018 C   0  0  0  1  0  0
   -5.6685  -28.7767   52.3523 C   0  0  0  1  0  0
   -4.4284  -28.2814   51.9093 C   0  0  0  1  0  0
   -2.0285  -27.3294   50.5756 C   0  0  0  1  0  0
   -1.6073  -26.8491   49.1710 C   0  0  0  1  0  0
    3.1184  -22.6649   49.2586 H   0  0
    2.3357  -22.3689   50.8273 H   0  0
    1.4617  -22.0115   49.3162 H   0  0
    0.6838  -24.0841   50.3603 H   0  0
    2.7725  -24.7647   51.4972 H   0  0
    3.5552  -25.0607   49.9286 H   0  0
    2.2094  -26.1002   50.4607 H   0  0
    3.1950  -24.2429   47.6563 H   0  0
    2.7373  -25.0666   45.3676 H   0  0
    0.4901  -25.9736   44.7978 H   0  0
   -1.2837  -26.0424   46.5153 H   0  0
   -1.3473  -22.9310   47.7962 H   0  0
   -4.9003  -24.0068   46.9979 H   0  0
   -6.3375  -22.6249   45.4839 H   0  0
   -5.4403  -20.5175   44.5122 H   0  0
   -1.7318  -21.1078   46.4600 H   0  0
   -1.2200  -23.6064   50.3584 H   0  0
   -0.5182  -25.0908   51.0010 H   0  0
   -2.5604  -24.6671   52.2403 H   0  0
   -3.4840  -24.3943   50.7590 H   0  0
   -5.2328  -24.9643   51.6336 H   0  0
   -7.4337  -25.8477   52.3888 H   0  0
   -8.5326  -28.1299   50.3939 H   0  0
   -7.3771  -28.6139   54.9940 H   0  0
   -8.9252  -29.7370   54.5096 H   0  0
  -10.0418  -27.8631   53.7353 H   0  0
   -8.4931  -26.7403   54.2182 H   0  0
   -5.7824  -29.8384   52.5712 H   0  0
   -3.5895  -28.9652   51.7798 H   0  0
   -2.4443  -28.3343   50.5019 H   0  0
   -1.1524  -27.3578   51.2235 H   0  0
   -0.7050  -27.3879   48.8816 H   0  0
   -2.3789  -27.1479   48.4615 H   0  0
  1  2  1  0
  2  3  1  0
  2  4  1  0
  4  5  2  0
  4  9  1  0
  5  6  1  0
  6  7  2  0
  7  8  1  0
  8  9  2  0
  9 10  1  0
 10 11  1  0
 10 20  1  0
 10 36  1  0
 11 12  2  0
 11 13  1  0
 13 14  1  0
 14 15  2  0
 14 19  1  0
 15 16  1  0
 16 17  2  0
 17 18  1  0
 18 19  2  0
 20 21  1  0
 21 22  1  0
 22 23  1  0
 22 35  1  0
 23 24  2  0
 23 34  1  0
 24 25  1  0
 25 26  2  0
 26 27  1  0
 26 33  1  0
 27 28  1  0
 27 31  1  0
 27 32  1  0
 28 29  2  0
 28 30  1  0
 31 32  1  0
 33 34  2  0
 35 36  1  0
  1 37  1  0
  1 38  1  0
  1 39  1  0
  2 40  1  0
  3 41  1  0
  3 42  1  0
  3 43  1  0
  5 44  1  0
  6 45  1  0
  7 46  1  0
  8 47  1  0
 13 48  1  0
 15 49  1  0
 16 50  1  0
 17 51  1  0
 19 52  1  0
 20 53  1  0
 20 54  1  0
 21 55  1  0
 21 56  1  0
 24 57  1  0
 25 58  1  0
 30 59  1  0
 31 60  1  0
 31 61  1  0
 32 62  1  0
 32 63  1  0
 33 64  1  0
 34 65  1  0
 35 66  1  0
 35 67  1  0
 36 68  1  0
 36 69  1  0
M  END
> <Name>
Molecule

> <AbsoluteEnergy>
76.0039

> <Clean Energy>
200.984

> <ConfNumber>
71

> <MOL_NUMBER>
2

> <RelativeEnergy>
14.5008

> <POSE_NUMBER>
3

> <LibDockScore>
141.1001

> <HotSpots>
2.67,-22.92,49.98,A,39,1
-5.13,-22.92,46.19,A,18,16
-8.73,-28.12,54.38,A,70,31

$$$$
Molecule
  SciTegic05072616053D

 69 73  0  0  0  0            999 V2000
    0.5567  -23.1515   46.7883 C   0  0  0  1  0  0
    0.5266  -24.5132   47.5074 C   0  0  0  1  0  0
    1.1658  -25.6151   46.6406 C   0  0  0  1  0  0
    1.1545  -24.4362   48.8828 C   0  0  0  1  0  0
    2.5544  -24.2572   48.9383 C   0  0  0  1  0  0
    3.2256  -24.1563   50.1603 C   0  0  0  1  0  0
    2.5039  -24.2269   51.3545 C   0  0  0  1  0  0
    1.1139  -24.4051   51.3248 C   0  0  0  1  0  0
    0.4044  -24.5303   50.1020 C   0  0  0  1  0  0
   -1.1194  -24.7494   50.0976 C   0  0  0  1  0  0
   -1.7630  -23.7424   49.1181 C   0  0  0  1  0  0
   -1.3237  -22.6140   49.0749 O   0  0  0  1  0  0
   -2.8124  -24.1109   48.2859 N   0  0  0  1  0  0
   -3.4343  -23.3511   47.2967 C   0  0  0  1  0  0
   -2.9228  -22.1251   46.8029 C   0  0  0  1  0  0
   -3.6184  -21.4384   45.7949 C   0  0  0  1  0  0
   -4.8185  -21.9720   45.2950 C   0  0  0  1  0  0
   -5.3234  -23.1440   45.7723 N   0  0  0  1  0  0
   -4.6550  -23.8209   46.7495 C   0  0  0  1  0  0
   -1.7823  -24.4479   51.4821 C   0  0  0  1  0  0
   -3.2378  -24.9322   51.6174 C   0  0  0  1  0  0
   -3.3526  -26.4007   51.3877 N   0  0  0  1  0  0
   -4.5257  -27.0918   51.6961 C   0  0  0  1  0  0
   -5.7265  -26.3936   51.9667 C   0  0  0  1  0  0
   -6.9082  -27.0843   52.2802 C   0  0  0  1  0  0
   -6.9149  -28.4888   52.3331 C   0  0  0  1  0  0
   -8.1857  -29.2328   52.6688 C   0  0  0  1  0  0
   -8.7073  -30.0619   51.5061 C   0  0  0  1  0  0
   -9.6019  -29.6194   50.8224 O   0  0  0  1  0  0
   -8.1649  -31.2543   51.2709 O   0  0  0  1  0  0
   -9.1980  -28.5977   53.6093 C   0  0  0  1  0  0
   -8.3789  -29.7750   54.0761 C   0  0  0  1  0  0
   -5.7307  -29.1972   52.0697 C   0  0  0  1  0  0
   -4.5477  -28.5064   51.7568 C   0  0  0  1  0  0
   -2.1398  -27.0860   50.8451 C   0  0  0  1  0  0
   -1.4104  -26.2640   49.7605 C   0  0  0  1  0  0
    0.0106  -23.2391   45.8491 H   0  0
    1.5932  -22.8912   46.5740 H   0  0
    0.1014  -22.3838   47.4139 H   0  0
   -0.5187  -24.7838   47.6563 H   0  0
    2.1983  -25.3384   46.4273 H   0  0
    0.6156  -25.6862   45.7023 H   0  0
    1.1366  -26.5713   47.1631 H   0  0
    3.1225  -24.1965   48.0100 H   0  0
    4.3072  -24.0231   50.1814 H   0  0
    3.0220  -24.1434   52.3098 H   0  0
    0.5638  -24.4486   52.2648 H   0  0
   -3.1908  -25.1026   48.4213 H   0  0
   -1.9946  -21.7175   47.2034 H   0  0
   -3.2304  -20.4982   45.4030 H   0  0
   -5.3554  -21.4383   44.5108 H   0  0
   -5.0737  -24.7555   47.1228 H   0  0
   -1.7553  -23.3724   51.6575 H   0  0
   -1.1852  -24.9151   52.2653 H   0  0
   -3.8597  -24.4080   50.8917 H   0  0
   -3.6017  -24.6980   52.6178 H   0  0
   -5.7342  -25.3042   51.9313 H   0  0
   -7.8239  -26.5290   52.4833 H   0  0
   -8.2747  -31.7873   52.1689 H   0  0
  -10.2171  -28.8910   53.3574 H   0  0
   -8.8263  -27.6597   54.0218 H   0  0
   -7.5706  -29.4655   54.7386 H   0  0
   -8.9606  -30.6968   54.0727 H   0  0
   -5.7295  -30.2865   52.1082 H   0  0
   -3.6344  -29.0672   51.5581 H   0  0
   -2.4352  -28.0461   50.4219 H   0  0
   -1.4486  -27.2820   51.6648 H   0  0
   -0.4642  -26.7564   49.5362 H   0  0
   -1.9995  -26.3064   48.8444 H   0  0
  1  2  1  0
  2  3  1  0
  2  4  1  0
  4  5  2  0
  4  9  1  0
  5  6  1  0
  6  7  2  0
  7  8  1  0
  8  9  2  0
  9 10  1  0
 10 11  1  0
 10 20  1  0
 10 36  1  0
 11 12  2  0
 11 13  1  0
 13 14  1  0
 14 15  2  0
 14 19  1  0
 15 16  1  0
 16 17  2  0
 17 18  1  0
 18 19  2  0
 20 21  1  0
 21 22  1  0
 22 23  1  0
 22 35  1  0
 23 24  2  0
 23 34  1  0
 24 25  1  0
 25 26  2  0
 26 27  1  0
 26 33  1  0
 27 28  1  0
 27 31  1  0
 27 32  1  0
 28 29  2  0
 28 30  1  0
 31 32  1  0
 33 34  2  0
 35 36  1  0
  1 37  1  0
  1 38  1  0
  1 39  1  0
  2 40  1  0
  3 41  1  0
  3 42  1  0
  3 43  1  0
  5 44  1  0
  6 45  1  0
  7 46  1  0
  8 47  1  0
 13 48  1  0
 15 49  1  0
 16 50  1  0
 17 51  1  0
 19 52  1  0
 20 53  1  0
 20 54  1  0
 21 55  1  0
 21 56  1  0
 24 57  1  0
 25 58  1  0
 30 59  1  0
 31 60  1  0
 31 61  1  0
 32 62  1  0
 32 63  1  0
 33 64  1  0
 34 65  1  0
 35 66  1  0
 35 67  1  0
 36 68  1  0
 36 69  1  0
M  END
> <Name>
Molecule

> <AbsoluteEnergy>
64.8895

> <Clean Energy>
200.984

> <ConfNumber>
7

> <MOL_NUMBER>
2

> <RelativeEnergy>
3.38633

> <POSE_NUMBER>
4

> <LibDockScore>
138.7616

> <HotSpots>
2.67,-23.92,48.98,A,32,5
-3.53,-22.32,46.59,A,20,15
-8.73,-28.12,54.38,A,70,31

$$$$
Molecule
  SciTegic05072616053D

 69 73  0  0  0  0            999 V2000
    1.2115  -23.6196   53.6771 C   0  0  0  1  0  0
    0.1060  -24.1760   52.7524 C   0  0  0  1  0  0
   -0.5179  -25.4686   53.3159 C   0  0  0  1  0  0
    0.5584  -24.3621   51.3155 C   0  0  0  1  0  0
    1.9429  -24.1381   51.1075 C   0  0  0  1  0  0
    2.5234  -24.2102   49.8362 C   0  0  0  1  0  0
    1.7272  -24.5217   48.7349 C   0  0  0  1  0  0
    0.3636  -24.7818   48.9134 C   0  0  0  1  0  0
   -0.2621  -24.7411   50.1884 C   0  0  0  1  0  0
   -1.7574  -25.1492   50.1632 C   0  0  0  1  0  0
   -2.4320  -24.7307   48.8376 C   0  0  0  1  0  0
   -3.0580  -25.5732   48.2306 O   0  0  0  1  0  0
   -2.3404  -23.4291   48.3466 N   0  0  0  1  0  0
   -3.1044  -22.8516   47.3316 C   0  0  0  1  0  0
   -4.3085  -23.4283   46.8589 C   0  0  0  1  0  0
   -5.0319  -22.7878   45.8377 C   0  0  0  1  0  0
   -4.5551  -21.5775   45.3064 C   0  0  0  1  0  0
   -3.4004  -21.0089   45.7573 N   0  0  0  1  0  0
   -2.6883  -21.6235   46.7495 C   0  0  0  1  0  0
   -2.6966  -24.5353   51.2365 C   0  0  0  1  0  0
   -4.1201  -25.1401   51.2735 C   0  0  0  1  0  0
   -4.1090  -26.6118   51.5285 N   0  0  0  1  0  0
   -5.2787  -27.3321   51.8104 C   0  0  0  1  0  0
   -6.5376  -26.6851   51.7899 C   0  0  0  1  0  0
   -7.7308  -27.4120   51.9658 C   0  0  0  1  0  0
   -7.7020  -28.8065   52.1547 C   0  0  0  1  0  0
   -8.9914  -29.6111   52.1907 C   0  0  0  1  0  0
   -9.6712  -29.7431   53.5567 C   0  0  0  1  0  0
   -9.4359  -28.9148   54.4134 O   0  0  0  1  0  0
  -10.4930  -30.7811   53.7946 O   0  0  0  1  0  0
   -9.0265  -30.8148   51.2537 C   0  0  0  1  0  0
   -9.9051  -29.6230   50.9709 C   0  0  0  1  0  0
   -6.4541  -29.4510   52.2739 C   0  0  0  1  0  0
   -5.2561  -28.7220   52.1018 C   0  0  0  1  0  0
   -2.7780  -27.2776   51.4575 C   0  0  0  1  0  0
   -1.8384  -26.7229   50.3538 C   0  0  0  1  0  0
    1.9844  -24.3803   53.7869 H   0  0
    0.7739  -23.4178   54.6548 H   0  0
    1.6374  -22.7074   53.2593 H   0  0
   -0.6698  -23.4107   52.7303 H   0  0
   -0.9388  -25.2490   54.2971 H   0  0
    0.2716  -26.2115   53.4292 H   0  0
   -1.2940  -25.8424   52.6480 H   0  0
    2.5745  -23.9025   51.9641 H   0  0
    3.5897  -24.0243   49.7080 H   0  0
    2.1654  -24.5626   47.7377 H   0  0
   -0.2419  -25.0251   48.0403 H   0  0
   -1.6008  -22.8021   48.7991 H   0  0
   -4.6723  -24.3635   47.2845 H   0  0
   -5.9557  -23.2268   45.4609 H   0  0
   -5.1203  -21.0824   44.5168 H   0  0
   -1.7705  -21.1559   47.1061 H   0  0
   -2.7781  -23.4629   51.0591 H   0  0
   -2.2378  -24.6631   52.2169 H   0  0
   -4.6141  -24.9494   50.3208 H   0  0
   -4.6956  -24.6487   52.0580 H   0  0
   -6.5841  -25.6071   51.6355 H   0  0
   -8.6871  -26.8890   51.9556 H   0  0
   -9.9114  -31.6332   53.5991 H   0  0
   -9.5931  -31.6400   51.6852 H   0  0
   -8.1542  -30.8368   50.6005 H   0  0
   -9.5036  -29.0085   50.1651 H   0  0
  -10.9417  -29.8108   51.2509 H   0  0
   -6.4131  -30.5165   52.4999 H   0  0
   -4.2987  -29.2348   52.1942 H   0  0
   -2.9286  -28.3434   51.2859 H   0  0
   -2.2837  -27.1733   52.4233 H   0  0
   -0.8327  -27.0958   50.5476 H   0  0
   -2.1348  -27.1664   49.4032 H   0  0
  1  2  1  0
  2  3  1  0
  2  4  1  0
  4  5  2  0
  4  9  1  0
  5  6  1  0
  6  7  2  0
  7  8  1  0
  8  9  2  0
  9 10  1  0
 10 11  1  0
 10 20  1  0
 10 36  1  0
 11 12  2  0
 11 13  1  0
 13 14  1  0
 14 15  2  0
 14 19  1  0
 15 16  1  0
 16 17  2  0
 17 18  1  0
 18 19  2  0
 20 21  1  0
 21 22  1  0
 22 23  1  0
 22 35  1  0
 23 24  2  0
 23 34  1  0
 24 25  1  0
 25 26  2  0
 26 27  1  0
 26 33  1  0
 27 28  1  0
 27 31  1  0
 27 32  1  0
 28 29  2  0
 28 30  1  0
 31 32  1  0
 33 34  2  0
 35 36  1  0
  1 37  1  0
  1 38  1  0
  1 39  1  0
  2 40  1  0
  3 41  1  0
  3 42  1  0
  3 43  1  0
  5 44  1  0
  6 45  1  0
  7 46  1  0
  8 47  1  0
 13 48  1  0
 15 49  1  0
 16 50  1  0
 17 51  1  0
 19 52  1  0
 20 53  1  0
 20 54  1  0
 21 55  1  0
 21 56  1  0
 24 57  1  0
 25 58  1  0
 30 59  1  0
 31 60  1  0
 31 61  1  0
 32 62  1  0
 32 63  1  0
 33 64  1  0
 34 65  1  0
 35 66  1  0
 35 67  1  0
 36 68  1  0
 36 69  1  0
M  END
> <Name>
Molecule

> <AbsoluteEnergy>
77.7897

> <Clean Energy>
200.984

> <ConfNumber>
84

> <MOL_NUMBER>
2

> <RelativeEnergy>
16.2865

> <POSE_NUMBER>
5

> <LibDockScore>
137.2248

> <HotSpots>
1.87,-25.32,48.38,A,30,6
-3.53,-22.32,46.59,A,20,19
-7.93,-28.32,52.38,A,59,25

$$$$
Molecule
  SciTegic05072616053D

 69 73  0  0  0  0            999 V2000
   -1.3168  -23.4829   52.3272 C   0  0  0  1  0  0
   -0.2121  -24.5587   52.2121 C   0  0  0  1  0  0
   -0.4943  -25.9394   52.8436 C   0  0  0  1  0  0
    0.5033  -24.5697   50.8699 C   0  0  0  1  0  0
    1.8309  -24.0826   50.9402 C   0  0  0  1  0  0
    2.6704  -24.0407   49.8252 C   0  0  0  1  0  0
    2.2029  -24.5021   48.5980 C   0  0  0  1  0  0
    0.8961  -24.9883   48.4917 C   0  0  0  1  0  0
   -0.0090  -25.0170   49.5915 C   0  0  0  1  0  0
   -1.4267  -25.5618   49.2825 C   0  0  0  1  0  0
   -2.0427  -24.9177   48.0153 C   0  0  0  1  0  0
   -2.4862  -25.6370   47.1491 O   0  0  0  1  0  0
   -2.0636  -23.5323   47.8610 N   0  0  0  1  0  0
   -2.8760  -22.7795   47.0150 C   0  0  0  1  0  0
   -4.1159  -23.2366   46.5079 C   0  0  0  1  0  0
   -4.8522  -22.4183   45.6330 C   0  0  0  1  0  0
   -4.3530  -21.1508   45.2854 C   0  0  0  1  0  0
   -3.1716  -20.6947   45.7855 N   0  0  0  1  0  0
   -2.4469  -21.4821   46.6332 C   0  0  0  1  0  0
   -2.5270  -25.2962   50.3692 C   0  0  0  1  0  0
   -3.7844  -26.1696   50.2024 C   0  0  0  1  0  0
   -3.3561  -27.5904   50.2199 N   0  0  0  1  0  0
   -3.5756  -28.4536   51.2944 C   0  0  0  1  0  0
   -4.5290  -28.1177   52.2856 C   0  0  0  1  0  0
   -4.6951  -28.9181   53.4254 C   0  0  0  1  0  0
   -3.9139  -30.0721   53.6013 C   0  0  0  1  0  0
   -4.0376  -30.8696   54.8825 C   0  0  0  1  0  0
   -3.3467  -30.1950   56.0721 C   0  0  0  1  0  0
   -3.8704  -30.2415   57.1629 O   0  0  0  1  0  0
   -2.1803  -29.5657   55.8783 O   0  0  0  1  0  0
   -4.0819  -32.3889   54.8135 C   0  0  0  1  0  0
   -5.3363  -31.6173   55.1488 C   0  0  0  1  0  0
   -3.0119  -30.4578   52.5932 C   0  0  0  1  0  0
   -2.8465  -29.6572   51.4471 C   0  0  0  1  0  0
   -2.5506  -27.9503   49.0276 C   0  0  0  1  0  0
   -1.2551  -27.1045   49.0195 C   0  0  0  1  0  0
   -1.5122  -23.3683   53.3934 H   0  0
   -2.2076  -23.9201   51.8763 H   0  0
   -1.0440  -22.5375   51.8583 H   0  0
    0.5390  -24.1970   52.9143 H   0  0
   -1.4109  -26.2997   52.3765 H   0  0
   -0.7155  -25.7479   53.8936 H   0  0
    0.3296  -26.6425   52.7216 H   0  0
    2.2109  -23.7279   51.8983 H   0  0
    3.6839  -23.6497   49.9151 H   0  0
    2.8529  -24.4845   47.7232 H   0  0
    0.5553  -25.3614   47.5259 H   0  0
   -1.3732  -22.9808   48.4644 H   0  0
   -4.4976  -24.2168   46.7938 H   0  0
   -5.8029  -22.7641   45.2273 H   0  0
   -4.9228  -20.5210   44.6022 H   0  0
   -1.5062  -21.1009   47.0304 H   0  0
   -2.8199  -24.2471   50.3273 H   0  0
   -2.1004  -25.4790   51.3555 H   0  0
   -4.2662  -25.9433   49.2512 H   0  0
   -4.4727  -25.9835   51.0269 H   0  0
   -5.1422  -27.2251   52.1613 H   0  0
   -5.4339  -28.6433   54.1782 H   0  0
   -2.3745  -28.8579   55.1274 H   0  0
   -3.6398  -32.8428   55.7004 H   0  0
   -4.0903  -32.7419   53.7823 H   0  0
   -6.0130  -31.5598   54.2963 H   0  0
   -5.5617  -31.6592   56.2144 H   0  0
   -2.4394  -31.3792   52.6997 H   0  0
   -2.1494  -29.9676   50.6688 H   0  0
   -2.2937  -29.0088   49.0671 H   0  0
   -3.1241  -27.7455   48.1236 H   0  0
   -0.7634  -27.2382   48.0559 H   0  0
   -0.5754  -27.5103   49.7688 H   0  0
  1  2  1  0
  2  3  1  0
  2  4  1  0
  4  5  2  0
  4  9  1  0
  5  6  1  0
  6  7  2  0
  7  8  1  0
  8  9  2  0
  9 10  1  0
 10 11  1  0
 10 20  1  0
 10 36  1  0
 11 12  2  0
 11 13  1  0
 13 14  1  0
 14 15  2  0
 14 19  1  0
 15 16  1  0
 16 17  2  0
 17 18  1  0
 18 19  2  0
 20 21  1  0
 21 22  1  0
 22 23  1  0
 22 35  1  0
 23 24  2  0
 23 34  1  0
 24 25  1  0
 25 26  2  0
 26 27  1  0
 26 33  1  0
 27 28  1  0
 27 31  1  0
 27 32  1  0
 28 29  2  0
 28 30  1  0
 31 32  1  0
 33 34  2  0
 35 36  1  0
  1 37  1  0
  1 38  1  0
  1 39  1  0
  2 40  1  0
  3 41  1  0
  3 42  1  0
  3 43  1  0
  5 44  1  0
  6 45  1  0
  7 46  1  0
  8 47  1  0
 13 48  1  0
 15 49  1  0
 16 50  1  0
 17 51  1  0
 19 52  1  0
 20 53  1  0
 20 54  1  0
 21 55  1  0
 21 56  1  0
 24 57  1  0
 25 58  1  0
 30 59  1  0
 31 60  1  0
 31 61  1  0
 32 62  1  0
 32 63  1  0
 33 64  1  0
 34 65  1  0
 35 66  1  0
 35 67  1  0
 36 68  1  0
 36 69  1  0
M  END
> <Name>
Molecule

> <AbsoluteEnergy>
79.2114

> <Clean Energy>
200.984

> <ConfNumber>
98

> <MOL_NUMBER>
2

> <RelativeEnergy>
17.7082

> <POSE_NUMBER>
6

> <LibDockScore>
136.7418

> <HotSpots>
-3.53,-22.32,46.59,A,20,15
-3.53,-20.52,45.19,A,12,17
-2.33,-30.12,55.19,P,60,30

$$$$
Molecule
  SciTegic05072616053D

 69 73  0  0  0  0            999 V2000
    1.0202  -23.0839   47.2396 C   0  0  0  1  0  0
    0.7751  -24.4806   47.8412 C   0  0  0  1  0  0
    1.4087  -25.5754   46.9635 C   0  0  0  1  0  0
    1.2371  -24.5824   49.2769 C   0  0  0  1  0  0
    2.6311  -24.6473   49.4969 C   0  0  0  1  0  0
    3.1638  -24.7014   50.7890 C   0  0  0  1  0  0
    2.3083  -24.6578   51.8902 C   0  0  0  1  0  0
    0.9238  -24.6074   51.6971 C   0  0  0  1  0  0
    0.3472  -24.6261   50.3994 C   0  0  0  1  0  0
   -1.1769  -24.7351   50.2313 C   0  0  0  1  0  0
   -1.7392  -23.7077   49.2277 C   0  0  0  1  0  0
   -1.2694  -22.5959   49.1324 O   0  0  0  1  0  0
   -2.8002  -24.1118   48.4310 N   0  0  0  1  0  0
   -3.4628  -23.4608   47.3978 C   0  0  0  1  0  0
   -3.1257  -22.1802   46.8912 C   0  0  0  1  0  0
   -3.8772  -21.6429   45.8283 C   0  0  0  1  0  0
   -4.9471  -22.3846   45.2887 C   0  0  0  1  0  0
   -5.2750  -23.6138   45.7797 N   0  0  0  1  0  0
   -4.5537  -24.1439   46.8020 C   0  0  0  1  0  0
   -1.9630  -24.4867   51.5686 C   0  0  0  1  0  0
   -1.9056  -25.6836   52.5408 C   0  0  0  1  0  0
   -2.5892  -26.8586   51.9417 N   0  0  0  1  0  0
   -3.1331  -27.8669   52.7191 C   0  0  0  1  0  0
   -2.6571  -28.1293   54.0230 C   0  0  0  1  0  0
   -3.1641  -29.2133   54.7542 C   0  0  0  1  0  0
   -4.1322  -30.0606   54.1842 C   0  0  0  1  0  0
   -4.5386  -31.3127   54.9260 C   0  0  0  1  0  0
   -4.2293  -32.6047   54.1492 C   0  0  0  1  0  0
   -4.8256  -33.6178   54.4383 O   0  0  0  1  0  0
   -3.3094  -32.6098   53.1696 O   0  0  0  1  0  0
   -5.7449  -31.2647   55.8537 C   0  0  0  1  0  0
   -4.3539  -31.3356   56.4353 C   0  0  0  1  0  0
   -4.6768  -29.7506   52.9228 C   0  0  0  1  0  0
   -4.1817  -28.6573   52.2015 C   0  0  0  1  0  0
   -2.6785  -26.9106   50.4539 C   0  0  0  1  0  0
   -1.4788  -26.2165   49.7804 C   0  0  0  1  0  0
    0.5840  -23.0482   46.2413 H   0  0
    2.0945  -22.9151   47.1658 H   0  0
    0.5670  -22.3189   47.8700 H   0  0
   -0.3033  -24.6385   47.8546 H   0  0
    2.4809  -25.3931   46.8912 H   0  0
    0.9704  -25.5262   45.9667 H   0  0
    1.2281  -26.5577   47.4000 H   0  0
    3.3061  -24.6554   48.6411 H   0  0
    4.2413  -24.7772   50.9348 H   0  0
    2.7184  -24.6630   52.9001 H   0  0
    0.2692  -24.5522   52.5669 H   0  0
   -3.1715  -25.0913   48.6491 H   0  0
   -2.2953  -21.6186   47.3191 H   0  0
   -3.6330  -20.6599   45.4256 H   0  0
   -5.5237  -21.9677   44.4629 H   0  0
   -4.8235  -25.1307   47.1781 H   0  0
   -1.5489  -23.6090   52.0649 H   0  0
   -3.0057  -24.2736   51.3331 H   0  0
   -0.8648  -25.9358   52.7438 H   0  0
   -2.3990  -25.4164   53.4753 H   0  0
   -1.8935  -27.4873   54.4621 H   0  0
   -2.8072  -29.4000   55.7670 H   0  0
   -2.4374  -32.2491   53.6299 H   0  0
   -6.2508  -32.2290   55.9019 H   0  0
   -6.1580  -30.2581   55.9196 H   0  0
   -4.0260  -30.3672   56.8131 H   0  0
   -4.1182  -32.3376   56.7938 H   0  0
   -5.4808  -30.3596   52.5096 H   0  0
   -4.6108  -28.4139   51.2295 H   0  0
   -2.7133  -27.9523   50.1348 H   0  0
   -3.5989  -26.4224   50.1335 H   0  0
   -1.6399  -26.2231   48.7024 H   0  0
   -0.5892  -26.8206   49.9587 H   0  0
  1  2  1  0
  2  3  1  0
  2  4  1  0
  4  5  2  0
  4  9  1  0
  5  6  1  0
  6  7  2  0
  7  8  1  0
  8  9  2  0
  9 10  1  0
 10 11  1  0
 10 20  1  0
 10 36  1  0
 11 12  2  0
 11 13  1  0
 13 14  1  0
 14 15  2  0
 14 19  1  0
 15 16  1  0
 16 17  2  0
 17 18  1  0
 18 19  2  0
 20 21  1  0
 21 22  1  0
 22 23  1  0
 22 35  1  0
 23 24  2  0
 23 34  1  0
 24 25  1  0
 25 26  2  0
 26 27  1  0
 26 33  1  0
 27 28  1  0
 27 31  1  0
 27 32  1  0
 28 29  2  0
 28 30  1  0
 31 32  1  0
 33 34  2  0
 35 36  1  0
  1 37  1  0
  1 38  1  0
  1 39  1  0
  2 40  1  0
  3 41  1  0
  3 42  1  0
  3 43  1  0
  5 44  1  0
  6 45  1  0
  7 46  1  0
  8 47  1  0
 13 48  1  0
 15 49  1  0
 16 50  1  0
 17 51  1  0
 19 52  1  0
 20 53  1  0
 20 54  1  0
 21 55  1  0
 21 56  1  0
 24 57  1  0
 25 58  1  0
 30 59  1  0
 31 60  1  0
 31 61  1  0
 32 62  1  0
 32 63  1  0
 33 64  1  0
 34 65  1  0
 35 66  1  0
 35 67  1  0
 36 68  1  0
 36 69  1  0
M  END
> <Name>
Molecule

> <AbsoluteEnergy>
70.8777

> <Clean Energy>
200.984

> <ConfNumber>
36

> <MOL_NUMBER>
2

> <RelativeEnergy>
9.37457

> <POSE_NUMBER>
7

> <LibDockScore>
136.1818

> <HotSpots>
3.07,-24.52,50.38,A,43,6
-3.53,-22.32,46.59,A,20,15
-3.33,-33.72,54.98,P,58,29

$$$$
Molecule
  SciTegic05072616053D

 69 73  0  0  0  0            999 V2000
   -2.2833  -24.3540   47.2382 C   0  0  0  1  0  0
   -3.7322  -24.7653   47.5653 C   0  0  0  1  0  0
   -4.5692  -24.7002   46.2655 C   0  0  0  1  0  0
   -4.2885  -23.9922   48.7515 C   0  0  0  1  0  0
   -5.4066  -23.1553   48.4971 C   0  0  0  1  0  0
   -5.9993  -22.3834   49.4982 C   0  0  0  1  0  0
   -5.4808  -22.4167   50.7876 C   0  0  0  1  0  0
   -4.3769  -23.2245   51.0712 C   0  0  0  1  0  0
   -3.7531  -24.0471   50.0932 C   0  0  0  1  0  0
   -2.5388  -24.8873   50.5758 C   0  0  0  1  0  0
   -1.2308  -24.1391   50.2538 C   0  0  0  1  0  0
   -1.2712  -23.1120   49.6134 O   0  0  0  1  0  0
   -0.0134  -24.6481   50.6916 N   0  0  0  1  0  0
    1.2738  -24.1935   50.4152 C   0  0  0  1  0  0
    2.3615  -24.8320   51.0544 C   0  0  0  1  0  0
    3.6733  -24.4036   50.7942 C   0  0  0  1  0  0
    3.8840  -23.3416   49.8991 C   0  0  0  1  0  0
    2.8435  -22.7154   49.2849 N   0  0  0  1  0  0
    1.5646  -23.1196   49.5336 C   0  0  0  1  0  0
   -2.4745  -26.3447   50.0217 C   0  0  0  1  0  0
   -3.6967  -27.2100   50.3939 C   0  0  0  1  0  0
   -3.8342  -27.2897   51.8788 N   0  0  0  1  0  0
   -3.9458  -28.5038   52.5576 C   0  0  0  1  0  0
   -4.6138  -29.6027   51.9671 C   0  0  0  1  0  0
   -4.7236  -30.8288   52.6411 C   0  0  0  1  0  0
   -4.1911  -30.9766   53.9326 C   0  0  0  1  0  0
   -4.3515  -32.2872   54.6646 C   0  0  0  1  0  0
   -4.9725  -32.1011   56.0404 C   0  0  0  1  0  0
   -6.0281  -32.6350   56.2929 O   0  0  0  1  0  0
   -4.3360  -31.3431   56.9344 O   0  0  0  1  0  0
   -3.3239  -33.3989   54.4989 C   0  0  0  1  0  0
   -4.6852  -33.5347   53.8583 C   0  0  0  1  0  0
   -3.5224  -29.8961   54.5325 C   0  0  0  1  0  0
   -3.3949  -28.6758   53.8503 C   0  0  0  1  0  0
   -3.8171  -25.9655   52.5683 C   0  0  0  1  0  0
   -2.5864  -25.1469   52.1279 C   0  0  0  1  0  0
   -2.2653  -23.3367   46.8472 H   0  0
   -1.8607  -25.0371   46.5014 H   0  0
   -1.6857  -24.3969   48.1488 H   0  0
   -3.7745  -25.7985   47.9099 H   0  0
   -4.1576  -25.3850   45.5241 H   0  0
   -4.5622  -23.6846   45.8698 H   0  0
   -5.5964  -24.9897   46.4873 H   0  0
   -5.8156  -23.1140   47.4876 H   0  0
   -6.8630  -21.7587   49.2702 H   0  0
   -5.9342  -21.8144   51.5749 H   0  0
   -3.9767  -23.2243   52.0851 H   0  0
   -0.0735  -25.5063   51.3278 H   0  0
    2.1823  -25.6543   51.7471 H   0  0
    4.5186  -24.8897   51.2813 H   0  0
    4.9022  -23.0122   49.6922 H   0  0
    0.7414  -22.6025   49.0406 H   0  0
   -2.3902  -26.3051   48.9357 H   0  0
   -1.5742  -26.8275   50.4017 H   0  0
   -4.5975  -26.7653   49.9710 H   0  0
   -3.5679  -28.2137   49.9888 H   0  0
   -5.0496  -29.4953   50.9738 H   0  0
   -5.2240  -31.6696   52.1606 H   0  0
   -4.2132  -30.4106   56.4676 H   0  0
   -3.2416  -34.0051   55.4010 H   0  0
   -2.5604  -33.1312   53.7685 H   0  0
   -4.6465  -33.3404   52.7865 H   0  0
   -5.3281  -34.2128   54.4195 H   0  0
   -3.1009  -30.0059   55.5317 H   0  0
   -2.8643  -27.8491   54.3226 H   0  0
   -3.7806  -26.1193   53.6468 H   0  0
   -4.7244  -25.4160   52.3174 H   0  0
   -2.5952  -24.1892   52.6483 H   0  0
   -1.6832  -25.6794   52.4260 H   0  0
  1  2  1  0
  2  3  1  0
  2  4  1  0
  4  5  2  0
  4  9  1  0
  5  6  1  0
  6  7  2  0
  7  8  1  0
  8  9  2  0
  9 10  1  0
 10 11  1  0
 10 20  1  0
 10 36  1  0
 11 12  2  0
 11 13  1  0
 13 14  1  0
 14 15  2  0
 14 19  1  0
 15 16  1  0
 16 17  2  0
 17 18  1  0
 18 19  2  0
 20 21  1  0
 21 22  1  0
 22 23  1  0
 22 35  1  0
 23 24  2  0
 23 34  1  0
 24 25  1  0
 25 26  2  0
 26 27  1  0
 26 33  1  0
 27 28  1  0
 27 31  1  0
 27 32  1  0
 28 29  2  0
 28 30  1  0
 31 32  1  0
 33 34  2  0
 35 36  1  0
  1 37  1  0
  1 38  1  0
  1 39  1  0
  2 40  1  0
  3 41  1  0
  3 42  1  0
  3 43  1  0
  5 44  1  0
  6 45  1  0
  7 46  1  0
  8 47  1  0
 13 48  1  0
 15 49  1  0
 16 50  1  0
 17 51  1  0
 19 52  1  0
 20 53  1  0
 20 54  1  0
 21 55  1  0
 21 56  1  0
 24 57  1  0
 25 58  1  0
 30 59  1  0
 31 60  1  0
 31 61  1  0
 32 62  1  0
 32 63  1  0
 33 64  1  0
 34 65  1  0
 35 66  1  0
 35 67  1  0
 36 68  1  0
 36 69  1  0
M  END
> <Name>
Molecule

> <AbsoluteEnergy>
72.2788

> <Clean Energy>
200.984

> <ConfNumber>
48

> <MOL_NUMBER>
2

> <RelativeEnergy>
10.7757

> <POSE_NUMBER>
8

> <LibDockScore>
135.7955

> <HotSpots>
-5.53,-22.92,48.98,A,33,5
4.07,-23.72,49.78,A,37,17
-3.93,-33.72,53.78,A,66,32

$$$$
Molecule
  SciTegic05072616053D

 69 73  0  0  0  0            999 V2000
    0.9965  -23.1199   47.2845 C   0  0  0  1  0  0
    0.7375  -24.5031   47.9110 C   0  0  0  1  0  0
    1.3612  -25.6196   47.0539 C   0  0  0  1  0  0
    1.1973  -24.5833   49.3488 C   0  0  0  1  0  0
    2.5908  -24.6487   49.5716 C   0  0  0  1  0  0
    3.1217  -24.6837   50.8652 C   0  0  0  1  0  0
    2.2648  -24.6200   51.9644 C   0  0  0  1  0  0
    0.8808  -24.5687   51.7687 C   0  0  0  1  0  0
    0.3058  -24.6065   50.4706 C   0  0  0  1  0  0
   -1.2184  -24.7137   50.3022 C   0  0  0  1  0  0
   -1.7810  -23.6772   49.3081 C   0  0  0  1  0  0
   -1.3226  -22.5590   49.2351 O   0  0  0  1  0  0
   -2.8284  -24.0808   48.4934 N   0  0  0  1  0  0
   -3.4574  -23.4389   47.4338 C   0  0  0  1  0  0
   -3.0906  -22.1719   46.9136 C   0  0  0  1  0  0
   -3.8095  -21.6430   45.8242 C   0  0  0  1  0  0
   -4.8767  -22.3794   45.2722 C   0  0  0  1  0  0
   -5.2331  -23.5953   45.7761 N   0  0  0  1  0  0
   -4.5434  -24.1174   46.8241 C   0  0  0  1  0  0
   -2.0038  -24.4771   51.6421 C   0  0  0  1  0  0
   -1.9462  -25.6825   52.6035 C   0  0  0  1  0  0
   -2.6303  -26.8521   51.9943 N   0  0  0  1  0  0
   -3.1741  -27.8671   52.7630 C   0  0  0  1  0  0
   -2.6532  -28.1858   54.0368 C   0  0  0  1  0  0
   -3.1645  -29.2762   54.7554 C   0  0  0  1  0  0
   -4.1825  -30.0742   54.2014 C   0  0  0  1  0  0
   -4.5983  -31.3360   54.9212 C   0  0  0  1  0  0
   -4.2281  -32.6196   54.1572 C   0  0  0  1  0  0
   -4.7819  -33.6552   54.4509 O   0  0  0  1  0  0
   -3.3022  -32.5927   53.1837 O   0  0  0  1  0  0
   -5.8471  -31.3140   55.7919 C   0  0  0  1  0  0
   -4.4835  -31.3595   56.4374 C   0  0  0  1  0  0
   -4.7685  -29.7072   52.9743 C   0  0  0  1  0  0
   -4.2684  -28.6074   52.2664 C   0  0  0  1  0  0
   -2.7203  -26.8908   50.5061 C   0  0  0  1  0  0
   -1.5207  -26.1909   49.8383 C   0  0  0  1  0  0
    0.5614  -23.0980   46.2853 H   0  0
    2.0724  -22.9628   47.2087 H   0  0
    0.5502  -22.3393   47.9005 H   0  0
   -0.3424  -24.6504   47.9261 H   0  0
    2.4352  -25.4489   46.9793 H   0  0
    0.9241  -25.5842   46.0560 H   0  0
    1.1708  -26.5921   47.5079 H   0  0
    3.2669  -24.6724   48.7169 H   0  0
    4.1988  -24.7603   51.0137 H   0  0
    2.6735  -24.6102   52.9748 H   0  0
    0.2253  -24.4977   52.6367 H   0  0
   -3.2182  -25.0513   48.7193 H   0  0
   -2.2626  -21.6143   47.3514 H   0  0
   -3.5422  -20.6705   45.4107 H   0  0
   -5.4279  -21.9691   44.4261 H   0  0
   -4.8356  -25.0938   47.2105 H   0  0
   -1.5893  -23.6040   52.1460 H   0  0
   -3.0466  -24.2617   51.4091 H   0  0
   -0.9053  -25.9366   52.8038 H   0  0
   -2.4392  -25.4235   53.5405 H   0  0
   -1.8514  -27.5824   54.4625 H   0  0
   -2.7722  -29.5062   55.7460 H   0  0
   -2.4497  -32.1909   53.6467 H   0  0
   -6.3358  -32.2880   55.8147 H   0  0
   -6.2823  -30.3158   55.8404 H   0  0
   -4.1925  -30.3860   56.8319 H   0  0
   -4.2452  -32.3577   56.8046 H   0  0
   -5.6083  -30.2773   52.5771 H   0  0
   -4.7293  -28.3198   51.3214 H   0  0
   -2.7554  -27.9296   50.1777 H   0  0
   -3.6407  -26.3995   50.1905 H   0  0
   -1.6822  -26.1879   48.7603 H   0  0
   -0.6311  -26.7967   50.0109 H   0  0
  1  2  1  0
  2  3  1  0
  2  4  1  0
  4  5  2  0
  4  9  1  0
  5  6  1  0
  6  7  2  0
  7  8  1  0
  8  9  2  0
  9 10  1  0
 10 11  1  0
 10 20  1  0
 10 36  1  0
 11 12  2  0
 11 13  1  0
 13 14  1  0
 14 15  2  0
 14 19  1  0
 15 16  1  0
 16 17  2  0
 17 18  1  0
 18 19  2  0
 20 21  1  0
 21 22  1  0
 22 23  1  0
 22 35  1  0
 23 24  2  0
 23 34  1  0
 24 25  1  0
 25 26  2  0
 26 27  1  0
 26 33  1  0
 27 28  1  0
 27 31  1  0
 27 32  1  0
 28 29  2  0
 28 30  1  0
 31 32  1  0
 33 34  2  0
 35 36  1  0
  1 37  1  0
  1 38  1  0
  1 39  1  0
  2 40  1  0
  3 41  1  0
  3 42  1  0
  3 43  1  0
  5 44  1  0
  6 45  1  0
  7 46  1  0
  8 47  1  0
 13 48  1  0
 15 49  1  0
 16 50  1  0
 17 51  1  0
 19 52  1  0
 20 53  1  0
 20 54  1  0
 21 55  1  0
 21 56  1  0
 24 57  1  0
 25 58  1  0
 30 59  1  0
 31 60  1  0
 31 61  1  0
 32 62  1  0
 32 63  1  0
 33 64  1  0
 34 65  1  0
 35 66  1  0
 35 67  1  0
 36 68  1  0
 36 69  1  0
M  END
> <Name>
Molecule

> <AbsoluteEnergy>
70.8777

> <Clean Energy>
200.984

> <ConfNumber>
36

> <MOL_NUMBER>
2

> <RelativeEnergy>
9.37457

> <POSE_NUMBER>
9

> <LibDockScore>
135.1891

> <HotSpots>
1.67,-24.32,50.98,A,50,5
-3.53,-22.32,46.59,A,20,15
-4.93,-33.72,54.59,P,51,29

$$$$
Molecule
  SciTegic05072616053D

 69 73  0  0  0  0            999 V2000
   -7.3284  -23.1605   50.2854 C   0  0  0  1  0  0
   -5.9460  -23.4790   50.8873 C   0  0  0  1  0  0
   -5.6857  -22.6417   52.1546 C   0  0  0  1  0  0
   -5.7694  -24.9608   51.1417 C   0  0  0  1  0  0
   -6.7611  -25.5907   51.9315 C   0  0  0  1  0  0
   -6.7131  -26.9636   52.1995 C   0  0  0  1  0  0
   -5.6944  -27.7362   51.6431 C   0  0  0  1  0  0
   -4.7156  -27.1362   50.8425 C   0  0  0  1  0  0
   -4.6759  -25.7342   50.6265 C   0  0  0  1  0  0
   -3.4923  -25.0875   49.8697 C   0  0  0  1  0  0
   -4.0456  -24.3314   48.6528 C   0  0  0  1  0  0
   -5.1730  -24.5921   48.2943 O   0  0  0  1  0  0
   -3.2841  -23.3855   47.9757 N   0  0  0  1  0  0
   -3.7054  -22.5710   46.9249 C   0  0  0  1  0  0
   -4.9939  -22.6636   46.3449 C   0  0  0  1  0  0
   -5.3333  -21.8335   45.2673 C   0  0  0  1  0  0
   -4.3950  -20.9034   44.7905 C   0  0  0  1  0  0
   -3.1619  -20.7858   45.3567 N   0  0  0  1  0  0
   -2.8173  -21.5966   46.3999 C   0  0  0  1  0  0
   -2.4358  -26.0925   49.2527 C   0  0  0  1  0  0
   -1.2995  -26.5346   50.2164 C   0  0  0  1  0  0
   -1.8117  -26.5103   51.6081 N   0  0  0  1  0  0
   -2.1868  -27.6555   52.3164 C   0  0  0  1  0  0
   -2.3080  -28.9022   51.6545 C   0  0  0  1  0  0
   -3.0041  -29.9600   52.2513 C   0  0  0  1  0  0
   -3.5460  -29.8040   53.5353 C   0  0  0  1  0  0
   -4.4869  -30.8441   54.0829 C   0  0  0  1  0  0
   -3.7962  -31.9262   54.8922 C   0  0  0  1  0  0
   -3.3655  -32.8934   54.3065 O   0  0  0  1  0  0
   -3.6788  -31.7978   56.2123 O   0  0  0  1  0  0
   -5.9001  -30.3943   54.4315 C   0  0  0  1  0  0
   -5.6736  -31.2800   53.2322 C   0  0  0  1  0  0
   -3.2264  -28.6620   54.2888 C   0  0  0  1  0  0
   -2.5326  -27.5971   53.6876 C   0  0  0  1  0  0
   -2.0935  -25.1175   52.0795 C   0  0  0  1  0  0
   -2.6413  -24.2540   50.9012 C   0  0  0  1  0  0
   -7.3667  -22.1002   50.0358 H   0  0
   -8.0941  -23.3787   51.0299 H   0  0
   -7.4975  -23.7599   49.3908 H   0  0
   -5.1942  -23.1977   50.1499 H   0  0
   -6.4619  -22.8632   52.8871 H   0  0
   -5.7345  -21.5847   51.8930 H   0  0
   -4.7052  -22.8780   52.5681 H   0  0
   -7.5780  -24.9949   52.3388 H   0  0
   -7.4662  -27.4252   52.8382 H   0  0
   -5.6603  -28.8092   51.8319 H   0  0
   -3.9607  -27.7651   50.3705 H   0  0
   -2.2690  -23.2704   48.2940 H   0  0
   -5.7192  -23.3777   46.7349 H   0  0
   -6.3168  -21.9092   44.8035 H   0  0
   -4.6593  -20.2622   43.9496 H   0  0
   -1.8274  -21.4920   46.8441 H   0  0
   -1.9852  -25.6304   48.3743 H   0  0
   -2.9619  -26.9818   48.9056 H   0  0
   -0.4567  -25.8492   50.1267 H   0  0
   -0.9797  -27.5455   49.9636 H   0  0
   -1.8555  -29.0389   50.6723 H   0  0
   -3.1247  -30.9034   51.7188 H   0  0
   -4.6627  -31.6665   56.5547 H   0  0
   -6.0729  -29.3583   54.1402 H   0  0
   -6.3001  -30.9547   55.2765 H   0  0
   -5.9532  -32.3136   53.4362 H   0  0
   -5.7244  -30.7171   52.3002 H   0  0
   -3.5159  -28.6017   55.3379 H   0  0
   -2.2601  -26.7234   54.2796 H   0  0
   -1.1748  -24.6699   52.4587 H   0  0
   -2.8336  -25.1489   52.8791 H   0  0
   -3.2595  -23.4535   51.3075 H   0  0
   -1.8017  -23.7949   50.3792 H   0  0
  1  2  1  0
  2  3  1  0
  2  4  1  0
  4  5  2  0
  4  9  1  0
  5  6  1  0
  6  7  2  0
  7  8  1  0
  8  9  2  0
  9 10  1  0
 10 11  1  0
 10 20  1  0
 10 36  1  0
 11 12  2  0
 11 13  1  0
 13 14  1  0
 14 15  2  0
 14 19  1  0
 15 16  1  0
 16 17  2  0
 17 18  1  0
 18 19  2  0
 20 21  1  0
 21 22  1  0
 22 23  1  0
 22 35  1  0
 23 24  2  0
 23 34  1  0
 24 25  1  0
 25 26  2  0
 26 27  1  0
 26 33  1  0
 27 28  1  0
 27 31  1  0
 27 32  1  0
 28 29  2  0
 28 30  1  0
 31 32  1  0
 33 34  2  0
 35 36  1  0
  1 37  1  0
  1 38  1  0
  1 39  1  0
  2 40  1  0
  3 41  1  0
  3 42  1  0
  3 43  1  0
  5 44  1  0
  6 45  1  0
  7 46  1  0
  8 47  1  0
 13 48  1  0
 15 49  1  0
 16 50  1  0
 17 51  1  0
 19 52  1  0
 20 53  1  0
 20 54  1  0
 21 55  1  0
 21 56  1  0
 24 57  1  0
 25 58  1  0
 30 59  1  0
 31 60  1  0
 31 61  1  0
 32 62  1  0
 32 63  1  0
 33 64  1  0
 34 65  1  0
 35 66  1  0
 35 67  1  0
 36 68  1  0
 36 69  1  0
M  END
> <Name>
Molecule

> <AbsoluteEnergy>
76.4511

> <Clean Energy>
200.984

> <ConfNumber>
76

> <MOL_NUMBER>
2

> <RelativeEnergy>
14.9479

> <POSE_NUMBER>
10

> <LibDockScore>
134.1628

> <HotSpots>
-7.33,-24.12,50.38,A,44,1
-3.53,-22.32,46.59,A,20,16
-3.33,-33.72,54.98,P,58,29

$$$$
Molecule
  SciTegic05072616053D

 69 73  0  0  0  0            999 V2000
    1.2111  -25.9143   47.7946 C   0  0  0  1  0  0
    0.6358  -24.6462   48.4560 C   0  0  0  1  0  0
    1.1697  -23.3727   47.7726 C   0  0  0  1  0  0
    0.8802  -24.6179   49.9508 C   0  0  0  1  0  0
    2.2247  -24.6882   50.3739 C   0  0  0  1  0  0
    2.5640  -24.6202   51.7292 C   0  0  0  1  0  0
    1.5630  -24.4519   52.6887 C   0  0  0  1  0  0
    0.2231  -24.3857   52.2922 C   0  0  0  1  0  0
   -0.1595  -24.5296   50.9333 C   0  0  0  1  0  0
   -1.6466  -24.6301   50.5668 C   0  0  0  1  0  0
   -2.0153  -23.6486   49.4321 C   0  0  0  1  0  0
   -1.3676  -22.6362   49.2660 O   0  0  0  1  0  0
   -3.0911  -23.9353   48.6125 N   0  0  0  1  0  0
   -3.5940  -23.2779   47.5005 C   0  0  0  1  0  0
   -4.7564  -23.8200   46.9029 C   0  0  0  1  0  0
   -5.3261  -23.1846   45.7926 C   0  0  0  1  0  0
   -4.7230  -22.0214   45.2859 C   0  0  0  1  0  0
   -3.5933  -21.4993   45.8466 N   0  0  0  1  0  0
   -3.0280  -22.1099   46.9307 C   0  0  0  1  0  0
   -2.5881  -24.3060   51.7750 C   0  0  0  1  0  0
   -4.0792  -24.6509   51.6048 C   0  0  0  1  0  0
   -4.2883  -26.0412   51.1001 N   0  0  0  1  0  0
   -5.3629  -26.8116   51.4883 C   0  0  0  1  0  0
   -6.5952  -26.2372   51.8556 C   0  0  0  1  0  0
   -7.5347  -27.0089   52.5523 C   0  0  0  1  0  0
   -7.2315  -28.3431   52.8779 C   0  0  0  1  0  0
   -8.0379  -29.0466   53.9346 C   0  0  0  1  0  0
   -7.0905  -29.7571   54.9110 C   0  0  0  1  0  0
   -7.3542  -30.8768   55.2873 O   0  0  0  1  0  0
   -5.9832  -29.1199   55.3318 O   0  0  0  1  0  0
   -9.3825  -29.6595   53.5739 C   0  0  0  1  0  0
   -9.3254  -28.4391   54.4648 C   0  0  0  1  0  0
   -6.1330  -28.9804   52.2754 C   0  0  0  1  0  0
   -5.2012  -28.2109   51.5688 C   0  0  0  1  0  0
   -3.3100  -26.6650   50.1528 C   0  0  0  1  0  0
   -1.8743  -26.1515   50.2872 C   0  0  0  1  0  0
    2.2981  -25.8880   47.8714 H   0  0
    0.9287  -25.9200   46.7418 H   0  0
    0.8245  -26.8058   48.2885 H   0  0
   -0.4448  -24.6740   48.3160 H   0  0
    0.8876  -23.3946   46.7200 H   0  0
    2.2569  -23.3625   47.8495 H   0  0
    0.7544  -22.4856   48.2509 H   0  0
    3.0140  -24.7976   49.6302 H   0  0
    3.6071  -24.6984   52.0358 H   0  0
    1.8252  -24.3723   53.7437 H   0  0
   -0.5464  -24.2194   53.0460 H   0  0
   -3.6297  -24.8191   48.8839 H   0  0
   -5.2063  -24.7278   47.3049 H   0  0
   -6.2259  -23.5874   45.3275 H   0  0
   -5.1679  -21.5238   44.4242 H   0  0
   -2.1219  -21.6895   47.3668 H   0  0
   -2.5066  -23.2427   52.0005 H   0  0
   -2.2135  -24.8311   52.6537 H   0  0
   -4.5308  -23.9480   50.9048 H   0  0
   -4.5818  -24.5431   52.5660 H   0  0
   -6.8163  -25.2009   51.6000 H   0  0
   -8.4938  -26.5782   52.8399 H   0  0
   -6.3299  -28.2240   55.7558 H   0  0
   -9.5756  -30.5664   54.1469 H   0  0
   -9.6795  -29.4014   52.5574 H   0  0
   -9.5941  -27.5328   53.9221 H   0  0
   -9.4885  -28.6975   55.5111 H   0  0
   -6.0083  -30.0601   52.3573 H   0  0
   -4.3527  -28.6917   51.0819 H   0  0
   -3.3114  -27.7436   50.3098 H   0  0
   -3.6498  -26.4885   49.1323 H   0  0
   -1.3372  -26.4124   49.3753 H   0  0
   -1.3873  -26.7192   51.0801 H   0  0
  1  2  1  0
  2  3  1  0
  2  4  1  0
  4  5  2  0
  4  9  1  0
  5  6  1  0
  6  7  2  0
  7  8  1  0
  8  9  2  0
  9 10  1  0
 10 11  1  0
 10 20  1  0
 10 36  1  0
 11 12  2  0
 11 13  1  0
 13 14  1  0
 14 15  2  0
 14 19  1  0
 15 16  1  0
 16 17  2  0
 17 18  1  0
 18 19  2  0
 20 21  1  0
 21 22  1  0
 22 23  1  0
 22 35  1  0
 23 24  2  0
 23 34  1  0
 24 25  1  0
 25 26  2  0
 26 27  1  0
 26 33  1  0
 27 28  1  0
 27 31  1  0
 27 32  1  0
 28 29  2  0
 28 30  1  0
 31 32  1  0
 33 34  2  0
 35 36  1  0
  1 37  1  0
  1 38  1  0
  1 39  1  0
  2 40  1  0
  3 41  1  0
  3 42  1  0
  3 43  1  0
  5 44  1  0
  6 45  1  0
  7 46  1  0
  8 47  1  0
 13 48  1  0
 15 49  1  0
 16 50  1  0
 17 51  1  0
 19 52  1  0
 20 53  1  0
 20 54  1  0
 21 55  1  0
 21 56  1  0
 24 57  1  0
 25 58  1  0
 30 59  1  0
 31 60  1  0
 31 61  1  0
 32 62  1  0
 32 63  1  0
 33 64  1  0
 34 65  1  0
 35 66  1  0
 35 67  1  0
 36 68  1  0
 36 69  1  0
M  END
> <Name>
Molecule

> <AbsoluteEnergy>
81.4106

> <Clean Energy>
200.984

> <ConfNumber>
106

> <MOL_NUMBER>
2

> <RelativeEnergy>
19.9075

> <POSE_NUMBER>
11

> <LibDockScore>
133.9337

> <HotSpots>
0.87,-24.32,52.78,A,63,7
-4.93,-21.52,45.19,A,11,17
-9.53,-30.12,52.78,A,62,32

$$$$
Molecule
  SciTegic05072616053D

 69 73  0  0  0  0            999 V2000
    1.8597  -25.6668   52.8891 C   0  0  0  1  0  0
    0.7402  -24.8467   52.2170 C   0  0  0  1  0  0
    0.3610  -23.6196   53.0685 C   0  0  0  1  0  0
    1.0805  -24.4711   50.7889 C   0  0  0  1  0  0
    2.3672  -23.9225   50.5926 C   0  0  0  1  0  0
    2.8362  -23.5948   49.3162 C   0  0  0  1  0  0
    2.0195  -23.8137   48.2055 C   0  0  0  1  0  0
    0.7273  -24.3358   48.3761 C   0  0  0  1  0  0
    0.2015  -24.6451   49.6644 C   0  0  0  1  0  0
   -1.2498  -25.1485   49.8085 C   0  0  0  1  0  0
   -2.1868  -24.7463   48.6371 C   0  0  0  1  0  0
   -2.9359  -25.5755   48.1740 O   0  0  0  1  0  0
   -2.1994  -23.4443   48.1377 N   0  0  0  1  0  0
   -3.0491  -22.8982   47.1723 C   0  0  0  1  0  0
   -4.2362  -23.5262   46.7181 C   0  0  0  1  0  0
   -5.0518  -22.8796   45.7755 C   0  0  0  1  0  0
   -4.6845  -21.6109   45.3007 C   0  0  0  1  0  0
   -3.5417  -21.0031   45.7209 N   0  0  0  1  0  0
   -2.7338  -21.6276   46.6253 C   0  0  0  1  0  0
   -1.9438  -24.5479   51.0759 C   0  0  0  1  0  0
   -3.3798  -25.0755   51.2564 C   0  0  0  1  0  0
   -3.4404  -26.5648   51.3275 N   0  0  0  1  0  0
   -4.6216  -27.2054   51.7141 C   0  0  0  1  0  0
   -4.6516  -28.5982   51.9664 C   0  0  0  1  0  0
   -5.8353  -29.2275   52.3916 C   0  0  0  1  0  0
   -7.0145  -28.4816   52.5850 C   0  0  0  1  0  0
   -8.2715  -29.1759   53.0909 C   0  0  0  1  0  0
   -8.4134  -29.1956   54.6201 C   0  0  0  1  0  0
   -7.4183  -29.3007   55.3027 O   0  0  0  1  0  0
   -9.6318  -29.0995   55.1773 O   0  0  0  1  0  0
   -9.5456  -29.1210   52.2592 C   0  0  0  1  0  0
   -8.7495  -30.4027   52.3280 C   0  0  0  1  0  0
   -7.0007  -27.0977   52.3090 C   0  0  0  1  0  0
   -5.8198  -26.4699   51.8752 C   0  0  0  1  0  0
   -2.1932  -27.3372   51.0227 C   0  0  0  1  0  0
   -1.2693  -26.7217   49.9337 C   0  0  0  1  0  0
    1.5132  -25.9960   53.8687 H   0  0
    2.7335  -25.0280   53.0172 H   0  0
    2.1161  -26.5301   52.2751 H   0  0
   -0.1401  -25.4869   52.1595 H   0  0
    1.2448  -22.9944   53.1954 H   0  0
    0.0245  -23.9624   54.0469 H   0  0
   -0.4306  -23.0512   52.5803 H   0  0
    3.0098  -23.7505   51.4561 H   0  0
    3.8326  -23.1714   49.1897 H   0  0
    2.3849  -23.5793   47.2057 H   0  0
    0.1074  -24.5099   47.4966 H   0  0
   -1.4662  -22.7800   48.5451 H   0  0
   -4.5151  -24.5084   47.0996 H   0  0
   -5.9623  -23.3588   45.4157 H   0  0
   -5.3269  -21.1027   44.5816 H   0  0
   -1.8142  -21.1334   46.9386 H   0  0
   -1.9725  -23.4619   50.9874 H   0  0
   -1.3574  -24.8030   51.9586 H   0  0
   -3.9921  -24.7360   50.4210 H   0  0
   -3.7988  -24.6600   52.1729 H   0  0
   -3.7465  -29.1899   51.8295 H   0  0
   -5.8403  -30.3023   52.5732 H   0  0
  -10.1816  -29.8882   54.7552 H   0  0
   -9.3854  -28.5982   51.3163 H   0  0
  -10.4350  -29.1655   52.8878 H   0  0
   -9.2156  -31.1304   52.9923 H   0  0
   -8.1651  -30.5624   51.4219 H   0  0
   -7.9114  -26.5117   52.4329 H   0  0
   -5.8273  -25.4014   51.6599 H   0  0
   -2.4758  -28.3425   50.7101 H   0  0
   -1.6200  -27.4454   51.9435 H   0  0
   -0.2510  -27.0647   50.1170 H   0  0
   -1.5553  -27.1390   48.9682 H   0  0
  1  2  1  0
  2  3  1  0
  2  4  1  0
  4  5  2  0
  4  9  1  0
  5  6  1  0
  6  7  2  0
  7  8  1  0
  8  9  2  0
  9 10  1  0
 10 11  1  0
 10 20  1  0
 10 36  1  0
 11 12  2  0
 11 13  1  0
 13 14  1  0
 14 15  2  0
 14 19  1  0
 15 16  1  0
 16 17  2  0
 17 18  1  0
 18 19  2  0
 20 21  1  0
 21 22  1  0
 22 23  1  0
 22 35  1  0
 23 24  2  0
 23 34  1  0
 24 25  1  0
 25 26  2  0
 26 27  1  0
 26 33  1  0
 27 28  1  0
 27 31  1  0
 27 32  1  0
 28 29  2  0
 28 30  1  0
 31 32  1  0
 33 34  2  0
 35 36  1  0
  1 37  1  0
  1 38  1  0
  1 39  1  0
  2 40  1  0
  3 41  1  0
  3 42  1  0
  3 43  1  0
  5 44  1  0
  6 45  1  0
  7 46  1  0
  8 47  1  0
 13 48  1  0
 15 49  1  0
 16 50  1  0
 17 51  1  0
 19 52  1  0
 20 53  1  0
 20 54  1  0
 21 55  1  0
 21 56  1  0
 24 57  1  0
 25 58  1  0
 30 59  1  0
 31 60  1  0
 31 61  1  0
 32 62  1  0
 32 63  1  0
 33 64  1  0
 34 65  1  0
 35 66  1  0
 35 67  1  0
 36 68  1  0
 36 69  1  0
M  END
> <Name>
Molecule

> <AbsoluteEnergy>
72.4042

> <Clean Energy>
200.984

> <ConfNumber>
52

> <MOL_NUMBER>
2

> <RelativeEnergy>
10.901

> <POSE_NUMBER>
12

> <LibDockScore>
133.5652

> <HotSpots>
0.47,-23.32,53.78,A,67,3
2.67,-22.92,49.98,A,39,6
-3.53,-22.32,46.59,A,20,19

$$$$
Molecule
  SciTegic05072616053D

 69 73  0  0  0  0            999 V2000
   -4.5450  -21.6272   50.6262 C   0  0  0  1  0  0
   -5.3017  -22.9102   50.2293 C   0  0  0  1  0  0
   -6.8213  -22.6189   50.2723 C   0  0  0  1  0  0
   -4.7636  -23.4887   48.9284 C   0  0  0  1  0  0
   -5.4706  -23.1575   47.7459 C   0  0  0  1  0  0
   -5.0213  -23.5381   46.4794 C   0  0  0  1  0  0
   -3.8348  -24.2542   46.3588 C   0  0  0  1  0  0
   -3.1282  -24.6217   47.5066 C   0  0  0  1  0  0
   -3.5865  -24.3222   48.8199 C   0  0  0  1  0  0
   -2.7446  -24.9121   49.9821 C   0  0  0  1  0  0
   -1.4126  -24.1429   50.1179 C   0  0  0  1  0  0
   -1.2483  -23.1099   49.5060 O   0  0  0  1  0  0
   -0.4088  -24.6394   50.9426 N   0  0  0  1  0  0
    0.9701  -24.4472   50.8617 C   0  0  0  1  0  0
    1.7755  -24.9791   51.8960 C   0  0  0  1  0  0
    3.1689  -24.8128   51.8568 C   0  0  0  1  0  0
    3.7483  -24.1168   50.7817 C   0  0  0  1  0  0
    2.9828  -23.6046   49.7761 N   0  0  0  1  0  0
    1.6262  -23.7633   49.8026 C   0  0  0  1  0  0
   -3.4742  -24.9625   51.3676 C   0  0  0  1  0  0
   -4.7383  -25.8599   51.3750 C   0  0  0  1  0  0
   -4.3079  -27.2338   51.0377 N   0  0  0  1  0  0
   -4.4055  -28.2727   51.9466 C   0  0  0  1  0  0
   -5.4025  -28.2942   52.9488 C   0  0  0  1  0  0
   -5.3862  -29.2932   53.9378 C   0  0  0  1  0  0
   -4.3825  -30.2800   53.9277 C   0  0  0  1  0  0
   -4.2822  -31.2911   55.0456 C   0  0  0  1  0  0
   -3.6745  -30.6997   56.3193 C   0  0  0  1  0  0
   -2.6118  -30.1192   56.2511 O   0  0  0  1  0  0
   -4.3255  -30.8368   57.4767 O   0  0  0  1  0  0
   -3.9440  -32.7312   54.6983 C   0  0  0  1  0  0
   -5.3390  -32.3796   55.1583 C   0  0  0  1  0  0
   -3.4456  -30.3107   52.8802 C   0  0  0  1  0  0
   -3.4615  -29.3187   51.8923 C   0  0  0  1  0  0
   -3.6384  -27.3589   49.7197 C   0  0  0  1  0  0
   -2.4052  -26.4323   49.7098 C   0  0  0  1  0  0
   -4.8270  -21.3263   51.6352 H   0  0
   -4.7793  -20.8256   49.9258 H   0  0
   -3.4730  -21.8225   50.5989 H   0  0
   -5.1293  -23.7145   50.9445 H   0  0
   -7.0672  -21.8223   49.5701 H   0  0
   -7.1148  -22.3230   51.2795 H   0  0
   -7.3655  -23.5210   49.9929 H   0  0
   -6.3957  -22.5868   47.8274 H   0  0
   -5.5965  -23.2758   45.5915 H   0  0
   -3.4581  -24.5274   45.3731 H   0  0
   -2.1874  -25.1599   47.3913 H   0  0
   -0.7409  -25.2549   51.7524 H   0  0
    1.3141  -25.5181   52.7234 H   0  0
    3.7948  -25.2190   52.6514 H   0  0
    4.8298  -23.9840   50.7513 H   0  0
    1.0295  -23.3534   48.9877 H   0  0
   -3.7603  -23.9503   51.6536 H   0  0
   -2.7770  -25.3311   52.1201 H   0  0
   -5.4483  -25.5031   50.6289 H   0  0
   -5.1914  -25.8489   52.3663 H   0  0
   -6.1848  -27.5352   52.9547 H   0  0
   -6.1519  -29.3036   54.7135 H   0  0
   -4.4613  -31.8717   57.5908 H   0  0
   -3.3682  -33.2096   55.4905 H   0  0
   -3.9026  -32.8833   53.6198 H   0  0
   -6.0403  -32.3442   54.3246 H   0  0
   -5.5053  -32.6690   56.1959 H   0  0
   -2.7047  -31.1090   52.8369 H   0  0
   -2.7398  -29.3552   51.0763 H   0  0
   -3.3213  -28.3904   49.5664 H   0  0
   -4.3260  -27.0597   48.9286 H   0  0
   -1.9117  -26.5154   48.7415 H   0  0
   -1.7007  -26.7782   50.4662 H   0  0
  1  2  1  0
  2  3  1  0
  2  4  1  0
  4  5  2  0
  4  9  1  0
  5  6  1  0
  6  7  2  0
  7  8  1  0
  8  9  2  0
  9 10  1  0
 10 11  1  0
 10 20  1  0
 10 36  1  0
 11 12  2  0
 11 13  1  0
 13 14  1  0
 14 15  2  0
 14 19  1  0
 15 16  1  0
 16 17  2  0
 17 18  1  0
 18 19  2  0
 20 21  1  0
 21 22  1  0
 22 23  1  0
 22 35  1  0
 23 24  2  0
 23 34  1  0
 24 25  1  0
 25 26  2  0
 26 27  1  0
 26 33  1  0
 27 28  1  0
 27 31  1  0
 27 32  1  0
 28 29  2  0
 28 30  1  0
 31 32  1  0
 33 34  2  0
 35 36  1  0
  1 37  1  0
  1 38  1  0
  1 39  1  0
  2 40  1  0
  3 41  1  0
  3 42  1  0
  3 43  1  0
  5 44  1  0
  6 45  1  0
  7 46  1  0
  8 47  1  0
 13 48  1  0
 15 49  1  0
 16 50  1  0
 17 51  1  0
 19 52  1  0
 20 53  1  0
 20 54  1  0
 21 55  1  0
 21 56  1  0
 24 57  1  0
 25 58  1  0
 30 59  1  0
 31 60  1  0
 31 61  1  0
 32 62  1  0
 32 63  1  0
 33 64  1  0
 34 65  1  0
 35 66  1  0
 35 67  1  0
 36 68  1  0
 36 69  1  0
M  END
> <Name>
Molecule

> <AbsoluteEnergy>
77.1488

> <Clean Energy>
200.984

> <ConfNumber>
79

> <MOL_NUMBER>
2

> <RelativeEnergy>
15.6457

> <POSE_NUMBER>
13

> <LibDockScore>
133.5353

> <HotSpots>
-4.73,-22.32,50.38,A,46,1
0.87,-24.32,52.78,A,63,15
-4.33,-32.92,55.19,A,75,31

$$$$
Molecule
  SciTegic05072616053D

 69 73  0  0  0  0            999 V2000
   -4.5822  -21.7040   50.7484 C   0  0  0  1  0  0
   -5.3559  -22.9480   50.2687 C   0  0  0  1  0  0
   -6.8689  -22.6222   50.2817 C   0  0  0  1  0  0
   -4.7924  -23.4773   48.9576 C   0  0  0  1  0  0
   -5.4951  -23.1284   47.7777 C   0  0  0  1  0  0
   -5.0252  -23.4628   46.5057 C   0  0  0  1  0  0
   -3.8218  -24.1487   46.3772 C   0  0  0  1  0  0
   -3.1183  -24.5329   47.5214 C   0  0  0  1  0  0
   -3.5959  -24.2810   48.8377 C   0  0  0  1  0  0
   -2.7521  -24.8849   49.9915 C   0  0  0  1  0  0
   -1.4040  -24.1414   50.1103 C   0  0  0  1  0  0
   -1.2265  -23.1135   49.4936 O   0  0  0  1  0  0
   -0.4009  -24.6553   50.9251 N   0  0  0  1  0  0
    0.9777  -24.4576   50.8524 C   0  0  0  1  0  0
    1.7814  -25.0066   51.8791 C   0  0  0  1  0  0
    3.1744  -24.8355   51.8475 C   0  0  0  1  0  0
    3.7551  -24.1177   50.7877 C   0  0  0  1  0  0
    2.9914  -23.5889   49.7894 N   0  0  0  1  0  0
    1.6351  -23.7519   49.8084 C   0  0  0  1  0  0
   -3.4665  -24.9184   51.3854 C   0  0  0  1  0  0
   -4.7476  -25.7910   51.4093 C   0  0  0  1  0  0
   -4.3480  -27.1737   51.0702 N   0  0  0  1  0  0
   -4.4551  -28.2087   51.9824 C   0  0  0  1  0  0
   -5.5031  -28.2606   52.9300 C   0  0  0  1  0  0
   -5.5025  -29.2508   53.9279 C   0  0  0  1  0  0
   -4.4633  -30.1988   53.9809 C   0  0  0  1  0  0
   -4.3854  -31.1969   55.1122 C   0  0  0  1  0  0
   -3.7062  -30.6217   56.3568 C   0  0  0  1  0  0
   -2.6176  -30.0986   56.2460 O   0  0  0  1  0  0
   -4.3249  -30.7096   57.5365 O   0  0  0  1  0  0
   -4.1396  -32.6589   54.7791 C   0  0  0  1  0  0
   -5.4976  -32.2219   55.2750 C   0  0  0  1  0  0
   -3.4710  -30.2017   52.9853 C   0  0  0  1  0  0
   -3.4710  -29.2184   51.9886 C   0  0  0  1  0  0
   -3.6962  -27.3144   49.7448 C   0  0  0  1  0  0
   -2.4455  -26.4120   49.7187 C   0  0  0  1  0  0
   -4.8874  -21.4444   51.7621 H   0  0
   -4.7770  -20.8647   50.0808 H   0  0
   -3.5146  -21.9238   50.7427 H   0  0
   -5.2235  -23.7891   50.9492 H   0  0
   -7.0752  -21.7875   49.6117 H   0  0
   -7.1856  -22.3672   51.2930 H   0  0
   -7.4250  -23.4966   49.9437 H   0  0
   -6.4335  -22.5809   47.8657 H   0  0
   -5.5975  -23.1882   45.6196 H   0  0
   -3.4295  -24.3853   45.3882 H   0  0
   -2.1646  -25.0466   47.4008 H   0  0
   -0.7334  -25.2913   51.7187 H   0  0
    1.3190  -25.5625   52.6947 H   0  0
    3.7989  -25.2548   52.6363 H   0  0
    4.8362  -23.9812   50.7634 H   0  0
    1.0399  -23.3284   48.9994 H   0  0
   -3.7295  -23.9003   51.6725 H   0  0
   -2.7680  -25.2990   52.1306 H   0  0
   -5.4591  -25.4219   50.6706 H   0  0
   -5.1890  -25.7692   52.4057 H   0  0
   -6.3126  -27.5319   52.8868 H   0  0
   -6.3079  -29.2845   54.6616 H   0  0
   -4.5103  -31.7344   57.6700 H   0  0
   -3.5672  -33.1572   55.5615 H   0  0
   -4.1404  -32.8293   53.7025 H   0  0
   -6.2214  -32.1594   54.4624 H   0  0
   -5.6476  -32.4858   56.3219 H   0  0
   -2.6994  -30.9716   52.9892 H   0  0
   -2.7056  -29.2336   51.2127 H   0  0
   -3.4010  -28.3522   49.5901 H   0  0
   -4.3870  -27.0035   48.9610 H   0  0
   -1.9649  -26.5066   48.7450 H   0  0
   -1.7392  -26.7701   50.4677 H   0  0
  1  2  1  0
  2  3  1  0
  2  4  1  0
  4  5  2  0
  4  9  1  0
  5  6  1  0
  6  7  2  0
  7  8  1  0
  8  9  2  0
  9 10  1  0
 10 11  1  0
 10 20  1  0
 10 36  1  0
 11 12  2  0
 11 13  1  0
 13 14  1  0
 14 15  2  0
 14 19  1  0
 15 16  1  0
 16 17  2  0
 17 18  1  0
 18 19  2  0
 20 21  1  0
 21 22  1  0
 22 23  1  0
 22 35  1  0
 23 24  2  0
 23 34  1  0
 24 25  1  0
 25 26  2  0
 26 27  1  0
 26 33  1  0
 27 28  1  0
 27 31  1  0
 27 32  1  0
 28 29  2  0
 28 30  1  0
 31 32  1  0
 33 34  2  0
 35 36  1  0
  1 37  1  0
  1 38  1  0
  1 39  1  0
  2 40  1  0
  3 41  1  0
  3 42  1  0
  3 43  1  0
  5 44  1  0
  6 45  1  0
  7 46  1  0
  8 47  1  0
 13 48  1  0
 15 49  1  0
 16 50  1  0
 17 51  1  0
 19 52  1  0
 20 53  1  0
 20 54  1  0
 21 55  1  0
 21 56  1  0
 24 57  1  0
 25 58  1  0
 30 59  1  0
 31 60  1  0
 31 61  1  0
 32 62  1  0
 32 63  1  0
 33 64  1  0
 34 65  1  0
 35 66  1  0
 35 67  1  0
 36 68  1  0
 36 69  1  0
M  END
> <Name>
Molecule

> <AbsoluteEnergy>
77.1488

> <Clean Energy>
200.984

> <ConfNumber>
79

> <MOL_NUMBER>
2

> <RelativeEnergy>
15.6457

> <POSE_NUMBER>
14

> <LibDockScore>
133.474

> <HotSpots>
-3.33,-21.92,50.38,A,47,1
-4.93,-23.52,47.59,A,26,5
2.27,-24.92,52.19,A,58,15

$$$$
Molecule
  SciTegic05072616053D

 69 73  0  0  0  0            999 V2000
    2.0459  -25.6194   46.4153 C   0  0  0  1  0  0
    0.8405  -25.0951   47.2336 C   0  0  0  1  0  0
    0.2331  -23.8937   46.4836 C   0  0  0  1  0  0
    1.1208  -24.7879   48.7015 C   0  0  0  1  0  0
    2.4861  -24.6648   49.0724 C   0  0  0  1  0  0
    2.8807  -24.3711   50.3784 C   0  0  0  1  0  0
    1.9152  -24.1753   51.3596 C   0  0  0  1  0  0
    0.5620  -24.2799   51.0307 C   0  0  0  1  0  0
    0.1075  -24.6065   49.7211 C   0  0  0  1  0  0
   -1.4321  -24.7060   49.5097 C   0  0  0  1  0  0
   -1.8640  -23.5526   48.5816 C   0  0  0  1  0  0
   -1.2014  -22.5381   48.5577 O   0  0  0  1  0  0
   -2.9877  -23.6603   47.7770 N   0  0  0  1  0  0
   -3.4467  -22.7664   46.8123 C   0  0  0  1  0  0
   -4.7243  -22.9819   46.2451 C   0  0  0  1  0  0
   -5.2158  -22.0958   45.2731 C   0  0  0  1  0  0
   -4.4249  -21.0044   44.8747 C   0  0  0  1  0  0
   -3.1907  -20.7923   45.4089 N   0  0  0  1  0  0
   -2.7011  -21.6499   46.3505 C   0  0  0  1  0  0
   -1.8414  -26.1249   48.9515 C   0  0  0  1  0  0
   -3.2504  -26.7024   49.2321 C   0  0  0  1  0  0
   -3.6602  -26.4346   50.6256 N   0  0  0  1  0  0
   -3.9687  -27.4373   51.5399 C   0  0  0  1  0  0
   -4.2472  -28.7548   51.1106 C   0  0  0  1  0  0
   -4.4977  -29.7755   52.0430 C   0  0  0  1  0  0
   -4.4820  -29.4933   53.4197 C   0  0  0  1  0  0
   -4.6952  -30.5938   54.4329 C   0  0  0  1  0  0
   -3.3846  -31.1024   55.0225 C   0  0  0  1  0  0
   -2.6147  -30.3075   55.5152 O   0  0  0  1  0  0
   -3.1158  -32.4065   54.9826 O   0  0  0  1  0  0
   -5.8522  -31.5637   54.2465 C   0  0  0  1  0  0
   -5.9069  -30.5347   55.3484 C   0  0  0  1  0  0
   -4.2513  -28.1786   53.8558 C   0  0  0  1  0  0
   -3.9959  -27.1596   52.9261 C   0  0  0  1  0  0
   -3.6416  -24.9976   50.9636 C   0  0  0  1  0  0
   -2.1961  -24.4955   50.8769 C   0  0  0  1  0  0
    2.7988  -24.8375   46.3158 H   0  0
    1.7160  -25.9398   45.4271 H   0  0
    2.4848  -26.4704   46.9361 H   0  0
    0.1198  -25.9101   47.3009 H   0  0
   -0.1082  -24.2032   45.4958 H   0  0
    0.9746  -23.1009   46.3846 H   0  0
   -0.6175  -23.5152   47.0504 H   0  0
    3.2527  -24.8046   48.3103 H   0  0
    3.9391  -24.2957   50.6277 H   0  0
    2.2133  -23.9411   52.3815 H   0  0
   -0.1789  -24.1038   51.8106 H   0  0
   -3.5776  -24.5424   47.9145 H   0  0
   -5.3259  -23.8339   46.5618 H   0  0
   -6.2002  -22.2527   44.8322 H   0  0
   -4.8073  -20.3139   44.1230 H   0  0
   -1.7070  -21.4724   46.7608 H   0  0
   -1.6994  -26.1112   47.8709 H   0  0
   -1.1105  -26.8489   49.3115 H   0  0
   -3.9692  -26.2450   48.5523 H   0  0
   -3.2401  -27.7790   49.0617 H   0  0
   -4.2679  -28.9814   50.0446 H   0  0
   -4.7047  -30.7885   51.6979 H   0  0
   -3.1765  -32.6652   53.9668 H   0  0
   -5.6101  -32.5540   54.6323 H   0  0
   -6.4780  -31.2808   53.4001 H   0  0
   -6.5633  -29.7036   55.0905 H   0  0
   -5.6941  -30.9760   56.3221 H   0  0
   -4.2708  -27.9489   54.9211 H   0  0
   -3.8165  -26.1430   53.2760 H   0  0
   -4.0174  -24.8540   51.9766 H   0  0
   -4.2621  -24.4472   50.2564 H   0  0
   -2.1919  -23.4313   51.1126 H   0  0
   -1.6214  -24.9768   51.6682 H   0  0
  1  2  1  0
  2  3  1  0
  2  4  1  0
  4  5  2  0
  4  9  1  0
  5  6  1  0
  6  7  2  0
  7  8  1  0
  8  9  2  0
  9 10  1  0
 10 11  1  0
 10 20  1  0
 10 36  1  0
 11 12  2  0
 11 13  1  0
 13 14  1  0
 14 15  2  0
 14 19  1  0
 15 16  1  0
 16 17  2  0
 17 18  1  0
 18 19  2  0
 20 21  1  0
 21 22  1  0
 22 23  1  0
 22 35  1  0
 23 24  2  0
 23 34  1  0
 24 25  1  0
 25 26  2  0
 26 27  1  0
 26 33  1  0
 27 28  1  0
 27 31  1  0
 27 32  1  0
 28 29  2  0
 28 30  1  0
 31 32  1  0
 33 34  2  0
 35 36  1  0
  1 37  1  0
  1 38  1  0
  1 39  1  0
  2 40  1  0
  3 41  1  0
  3 42  1  0
  3 43  1  0
  5 44  1  0
  6 45  1  0
  7 46  1  0
  8 47  1  0
 13 48  1  0
 15 49  1  0
 16 50  1  0
 17 51  1  0
 19 52  1  0
 20 53  1  0
 20 54  1  0
 21 55  1  0
 21 56  1  0
 24 57  1  0
 25 58  1  0
 30 59  1  0
 31 60  1  0
 31 61  1  0
 32 62  1  0
 32 63  1  0
 33 64  1  0
 34 65  1  0
 35 66  1  0
 35 67  1  0
 36 68  1  0
 36 69  1  0
M  END
> <Name>
Molecule

> <AbsoluteEnergy>
75.943

> <Clean Energy>
200.984

> <ConfNumber>
70

> <MOL_NUMBER>
2

> <RelativeEnergy>
14.4398

> <POSE_NUMBER>
15

> <LibDockScore>
131.747

> <HotSpots>
0.27,-24.92,46.38,A,19,3
-5.93,-22.12,45.59,A,14,16
-2.33,-30.12,55.19,P,60,29

$$$$
Molecule
  SciTegic05072616053D

 69 73  0  0  0  0            999 V2000
    0.8468  -23.2282   46.5780 C   0  0  0  1  0  0
    0.7942  -24.5815   47.3127 C   0  0  0  1  0  0
    1.7642  -25.5985   46.6791 C   0  0  0  1  0  0
    1.0316  -24.4237   48.7977 C   0  0  0  1  0  0
    2.3355  -24.0490   49.1968 C   0  0  0  1  0  0
    2.6704  -23.9012   50.5470 C   0  0  0  1  0  0
    1.7006  -24.1213   51.5279 C   0  0  0  1  0  0
    0.3997  -24.4767   51.1555 C   0  0  0  1  0  0
    0.0239  -24.6334   49.7956 C   0  0  0  1  0  0
   -1.4211  -25.0244   49.4532 C   0  0  0  1  0  0
   -1.8723  -24.4707   48.0900 C   0  0  0  1  0  0
   -2.2163  -25.2388   47.2182 O   0  0  0  1  0  0
   -1.8920  -23.0999   47.8516 N   0  0  0  1  0  0
   -2.7189  -22.4731   46.9317 C   0  0  0  1  0  0
   -2.3256  -21.2707   46.2982 C   0  0  0  1  0  0
   -3.2037  -20.6588   45.3859 C   0  0  0  1  0  0
   -4.4570  -21.2469   45.1306 C   0  0  0  1  0  0
   -4.8366  -22.4025   45.7436 N   0  0  0  1  0  0
   -3.9927  -23.0106   46.6247 C   0  0  0  1  0  0
   -2.4700  -24.4469   50.4572 C   0  0  0  1  0  0
   -3.9070  -24.9241   50.1919 C   0  0  0  1  0  0
   -3.9807  -26.4080   50.2926 N   0  0  0  1  0  0
   -4.9283  -27.0267   51.1058 C   0  0  0  1  0  0
   -5.9859  -26.2552   51.6328 C   0  0  0  1  0  0
   -6.9173  -26.8212   52.5196 C   0  0  0  1  0  0
   -6.8213  -28.1810   52.8759 C   0  0  0  1  0  0
   -7.7960  -28.7979   53.8633 C   0  0  0  1  0  0
   -7.2238  -28.9785   55.2797 C   0  0  0  1  0  0
   -6.3320  -29.7758   55.4701 O   0  0  0  1  0  0
   -7.7086  -28.2613   56.3004 O   0  0  0  1  0  0
   -9.2808  -28.4982   53.7116 C   0  0  0  1  0  0
   -8.7497  -29.8595   53.3323 C   0  0  0  1  0  0
   -5.8046  -28.9723   52.3119 C   0  0  0  1  0  0
   -4.8634  -28.4022   51.4334 C   0  0  0  1  0  0
   -2.9882  -27.1581   49.4745 C   0  0  0  1  0  0
   -1.5570  -26.5788   49.5899 C   0  0  0  1  0  0
    0.5782  -23.3861   45.5335 H   0  0
    1.8646  -22.8415   46.6287 H   0  0
    0.1561  -22.5214   47.0378 H   0  0
   -0.2143  -24.9786   47.1969 H   0  0
    2.7758  -25.1957   46.7291 H   0  0
    1.4894  -25.7403   45.6339 H   0  0
    1.7148  -26.5492   47.2099 H   0  0
    3.0958  -23.8716   48.4362 H   0  0
    3.6830  -23.6157   50.8321 H   0  0
    1.9570  -24.0163   52.5821 H   0  0
   -0.3474  -24.6381   51.9326 H   0  0
   -1.2223  -22.4867   48.4176 H   0  0
   -1.3549  -20.8245   46.5144 H   0  0
   -2.9162  -19.7368   44.8806 H   0  0
   -5.1380  -20.7674   44.4275 H   0  0
   -4.3071  -23.9364   47.1064 H   0  0
   -2.4464  -23.3583   50.4064 H   0  0
   -2.1853  -24.7347   51.4693 H   0  0
   -4.2136  -24.6145   49.1928 H   0  0
   -4.5778  -24.4786   50.9265 H   0  0
   -6.0814  -25.2073   51.3484 H   0  0
   -7.7167  -26.2064   52.9332 H   0  0
   -8.7383  -28.4666   56.2994 H   0  0
   -9.4770  -27.8837   52.8330 H   0  0
   -9.7928  -28.5196   54.6736 H   0  0
   -8.9791  -30.6069   54.0919 H   0  0
   -8.6618  -29.9705   52.2515 H   0  0
   -5.7449  -30.0329   52.5562 H   0  0
   -4.0792  -29.0246   51.0025 H   0  0
   -2.9769  -28.1990   49.7978 H   0  0
   -3.2977  -27.1333   48.4297 H   0  0
   -0.9340  -27.0479   48.8284 H   0  0
   -1.1416  -26.8792   50.5518 H   0  0
  1  2  1  0
  2  3  1  0
  2  4  1  0
  4  5  2  0
  4  9  1  0
  5  6  1  0
  6  7  2  0
  7  8  1  0
  8  9  2  0
  9 10  1  0
 10 11  1  0
 10 20  1  0
 10 36  1  0
 11 12  2  0
 11 13  1  0
 13 14  1  0
 14 15  2  0
 14 19  1  0
 15 16  1  0
 16 17  2  0
 17 18  1  0
 18 19  2  0
 20 21  1  0
 21 22  1  0
 22 23  1  0
 22 35  1  0
 23 24  2  0
 23 34  1  0
 24 25  1  0
 25 26  2  0
 26 27  1  0
 26 33  1  0
 27 28  1  0
 27 31  1  0
 27 32  1  0
 28 29  2  0
 28 30  1  0
 31 32  1  0
 33 34  2  0
 35 36  1  0
  1 37  1  0
  1 38  1  0
  1 39  1  0
  2 40  1  0
  3 41  1  0
  3 42  1  0
  3 43  1  0
  5 44  1  0
  6 45  1  0
  7 46  1  0
  8 47  1  0
 13 48  1  0
 15 49  1  0
 16 50  1  0
 17 51  1  0
 19 52  1  0
 20 53  1  0
 20 54  1  0
 21 55  1  0
 21 56  1  0
 24 57  1  0
 25 58  1  0
 30 59  1  0
 31 60  1  0
 31 61  1  0
 32 62  1  0
 32 63  1  0
 33 64  1  0
 34 65  1  0
 35 66  1  0
 35 67  1  0
 36 68  1  0
 36 69  1  0
M  END
> <Name>
Molecule

> <AbsoluteEnergy>
66.2644

> <Clean Energy>
200.984

> <ConfNumber>
12

> <MOL_NUMBER>
2

> <RelativeEnergy>
4.76126

> <POSE_NUMBER>
16

> <LibDockScore>
130.7709

> <HotSpots>
2.67,-23.92,48.98,A,32,5
-3.53,-20.52,45.19,A,12,17
-3.53,-22.32,46.59,A,20,19

$$$$
Molecule
  SciTegic05072616053D

 69 73  0  0  0  0            999 V2000
    1.6288  -26.0628   47.0195 C   0  0  0  1  0  0
    0.6278  -25.0183   47.5508 C   0  0  0  1  0  0
    0.6716  -23.7251   46.7139 C   0  0  0  1  0  0
    0.8251  -24.7367   49.0258 C   0  0  0  1  0  0
    2.1208  -24.3370   49.4244 C   0  0  0  1  0  0
    2.4136  -24.0500   50.7614 C   0  0  0  1  0  0
    1.4086  -24.1489   51.7267 C   0  0  0  1  0  0
    0.1159  -24.5342   51.3522 C   0  0  0  1  0  0
   -0.2142  -24.8482   50.0084 C   0  0  0  1  0  0
   -1.6476  -25.2733   49.6554 C   0  0  0  1  0  0
   -2.0567  -24.7467   48.2679 C   0  0  0  1  0  0
   -2.3721  -25.5457   47.4169 O   0  0  0  1  0  0
   -2.0804  -23.3788   48.0152 N   0  0  0  1  0  0
   -2.8572  -22.6854   47.0877 C   0  0  0  1  0  0
   -4.1063  -23.1436   46.6022 C   0  0  0  1  0  0
   -4.8195  -22.3641   45.6768 C   0  0  0  1  0  0
   -4.2828  -21.1408   45.2429 C   0  0  0  1  0  0
   -3.0788  -20.6956   45.6976 N   0  0  0  1  0  0
   -2.3765  -21.4449   46.5955 C   0  0  0  1  0  0
   -2.7619  -24.6552   50.5854 C   0  0  0  1  0  0
   -2.9670  -25.3329   51.9537 C   0  0  0  1  0  0
   -3.1357  -26.7853   51.7566 N   0  0  0  1  0  0
   -4.3179  -27.4426   52.0554 C   0  0  0  1  0  0
   -4.3913  -28.8503   52.1505 C   0  0  0  1  0  0
   -5.6030  -29.4738   52.5028 C   0  0  0  1  0  0
   -6.7506  -28.6979   52.7575 C   0  0  0  1  0  0
   -8.0426  -29.3432   53.2110 C   0  0  0  1  0  0
   -8.1885  -29.3448   54.7339 C   0  0  0  1  0  0
   -8.9366  -30.1372   55.2660 O   0  0  0  1  0  0
   -7.4788  -28.4590   55.4411 O   0  0  0  1  0  0
   -8.6413  -30.4810   52.3949 C   0  0  0  1  0  0
   -9.2952  -29.1195   52.3780 C   0  0  0  1  0  0
   -6.6922  -27.3012   52.6100 C   0  0  0  1  0  0
   -5.4839  -26.6786   52.2704 C   0  0  0  1  0  0
   -1.9674  -27.4397   51.1359 C   0  0  0  1  0  0
   -1.7756  -26.8445   49.7263 C   0  0  0  1  0  0
    2.6316  -25.6373   47.0582 H   0  0
    1.3794  -26.2906   45.9832 H   0  0
    1.5848  -26.9700   47.6221 H   0  0
   -0.3688  -25.4467   47.4447 H   0  0
    0.4290  -23.9695   45.6797 H   0  0
    1.6812  -23.3162   46.7547 H   0  0
   -0.0415  -22.9982   47.1028 H   0  0
    2.9075  -24.2507   48.6749 H   0  0
    3.4214  -23.7505   51.0490 H   0  0
    1.6307  -23.9263   52.7704 H   0  0
   -0.6599  -24.5948   52.1154 H   0  0
   -1.4183  -22.7830   48.6080 H   0  0
   -4.5118  -24.0956   46.9447 H   0  0
   -5.7827  -22.7061   45.2980 H   0  0
   -4.8409  -20.5359   44.5282 H   0  0
   -1.4123  -21.0776   46.9470 H   0  0
   -2.5267  -23.6044   50.7548 H   0  0
   -3.7103  -24.6729   50.0484 H   0  0
   -2.0969  -25.1504   52.5843 H   0  0
   -3.8572  -24.9256   52.4329 H   0  0
   -3.5070  -29.4553   51.9505 H   0  0
   -5.6534  -30.5600   52.5787 H   0  0
   -7.7443  -27.5187   55.0566 H   0  0
   -9.1875  -31.1817   53.0264 H   0  0
   -8.0692  -30.6639   51.4853 H   0  0
   -9.0730  -28.5781   51.4584 H   0  0
  -10.1899  -29.0952   53.0002 H   0  0
   -7.5895  -26.7009   52.7603 H   0  0
   -5.4446  -25.5938   52.1714 H   0  0
   -2.1445  -28.5124   51.0587 H   0  0
   -1.0782  -27.2500   51.7371 H   0  0
   -0.8831  -27.2869   49.2837 H   0  0
   -2.6159  -27.1528   49.1043 H   0  0
  1  2  1  0
  2  3  1  0
  2  4  1  0
  4  5  2  0
  4  9  1  0
  5  6  1  0
  6  7  2  0
  7  8  1  0
  8  9  2  0
  9 10  1  0
 10 11  1  0
 10 20  1  0
 10 36  1  0
 11 12  2  0
 11 13  1  0
 13 14  1  0
 14 15  2  0
 14 19  1  0
 15 16  1  0
 16 17  2  0
 17 18  1  0
 18 19  2  0
 20 21  1  0
 21 22  1  0
 22 23  1  0
 22 35  1  0
 23 24  2  0
 23 34  1  0
 24 25  1  0
 25 26  2  0
 26 27  1  0
 26 33  1  0
 27 28  1  0
 27 31  1  0
 27 32  1  0
 28 29  2  0
 28 30  1  0
 31 32  1  0
 33 34  2  0
 35 36  1  0
  1 37  1  0
  1 38  1  0
  1 39  1  0
  2 40  1  0
  3 41  1  0
  3 42  1  0
  3 43  1  0
  5 44  1  0
  6 45  1  0
  7 46  1  0
  8 47  1  0
 13 48  1  0
 15 49  1  0
 16 50  1  0
 17 51  1  0
 19 52  1  0
 20 53  1  0
 20 54  1  0
 21 55  1  0
 21 56  1  0
 24 57  1  0
 25 58  1  0
 30 59  1  0
 31 60  1  0
 31 61  1  0
 32 62  1  0
 32 63  1  0
 33 64  1  0
 34 65  1  0
 35 66  1  0
 35 67  1  0
 36 68  1  0
 36 69  1  0
M  END
> <Name>
Molecule

> <AbsoluteEnergy>
66.7737

> <Clean Energy>
200.984

> <ConfNumber>
14

> <MOL_NUMBER>
2

> <RelativeEnergy>
5.27051

> <POSE_NUMBER>
17

> <LibDockScore>
130.5945

> <HotSpots>
0.87,-24.32,52.78,A,63,7
-2.53,-21.12,45.98,A,16,16
-8.53,-31.32,51.19,A,51,31

$$$$
Molecule
  SciTegic05072616053D

 69 73  0  0  0  0            999 V2000
   -0.6359  -23.2952   48.3858 C   0  0  0  1  0  0
   -0.3500  -24.7213   48.8971 C   0  0  0  1  0  0
    0.2209  -25.6186   47.7827 C   0  0  0  1  0  0
    0.5337  -24.7114   50.1263 C   0  0  0  1  0  0
    1.8582  -24.2417   49.9568 C   0  0  0  1  0  0
    2.7542  -24.1942   51.0307 C   0  0  0  1  0  0
    2.3402  -24.6136   52.2969 C   0  0  0  1  0  0
    1.0303  -25.0793   52.4887 C   0  0  0  1  0  0
    0.0952  -25.1428   51.4214 C   0  0  0  1  0  0
   -1.3341  -25.6566   51.6743 C   0  0  0  1  0  0
   -2.3456  -24.5476   51.3095 C   0  0  0  1  0  0
   -1.9589  -23.3970   51.2907 O   0  0  0  1  0  0
   -3.6683  -24.8496   51.0015 N   0  0  0  1  0  0
   -4.7029  -23.9681   50.7106 C   0  0  0  1  0  0
   -6.0121  -24.4840   50.5606 C   0  0  0  1  0  0
   -7.0778  -23.6135   50.2921 C   0  0  0  1  0  0
   -6.8239  -22.2378   50.1664 C   0  0  0  1  0  0
   -5.5615  -21.7350   50.2841 N   0  0  0  1  0  0
   -4.5181  -22.5740   50.5449 C   0  0  0  1  0  0
   -1.6095  -25.9739   53.1826 C   0  0  0  1  0  0
   -3.0102  -26.5555   53.4588 C   0  0  0  1  0  0
   -3.3587  -27.6530   52.5072 N   0  0  0  1  0  0
   -4.6559  -28.1566   52.4031 C   0  0  0  1  0  0
   -5.7669  -27.3711   52.7866 C   0  0  0  1  0  0
   -7.0754  -27.8637   52.6734 C   0  0  0  1  0  0
   -7.3082  -29.1594   52.1752 C   0  0  0  1  0  0
   -8.7218  -29.6974   52.0586 C   0  0  0  1  0  0
   -9.5281  -29.7011   53.3690 C   0  0  0  1  0  0
  -10.3993  -30.5337   53.5269 O   0  0  0  1  0  0
   -9.2890  -28.7978   54.3255 O   0  0  0  1  0  0
   -9.4957  -29.4449   50.7689 C   0  0  0  1  0  0
   -8.9553  -30.8257   51.0589 C   0  0  0  1  0  0
   -6.2108  -29.9501   51.7855 C   0  0  0  1  0  0
   -4.8990  -29.4571   51.9035 C   0  0  0  1  0  0
   -2.2375  -28.1529   51.6615 C   0  0  0  1  0  0
   -1.5320  -27.0099   50.8883 C   0  0  0  1  0  0
   -1.3507  -23.3572   47.5652 H   0  0
    0.2945  -22.8668   48.0132 H   0  0
   -1.0387  -22.6768   49.1879 H   0  0
   -1.3038  -25.1543   49.1987 H   0  0
    1.1442  -25.1709   47.4151 H   0  0
   -0.5010  -25.6613   46.9671 H   0  0
    0.4160  -26.6211   48.1635 H   0  0
    2.1863  -23.9108   48.9714 H   0  0
    3.7709  -23.8314   50.8796 H   0  0
    3.0346  -24.5792   53.1363 H   0  0
    0.7222  -25.4010   53.4835 H   0  0
   -3.9204  -25.8894   50.9867 H   0  0
   -6.1914  -25.5551   50.6536 H   0  0
   -8.0912  -23.9997   50.1822 H   0  0
   -7.6530  -21.5578   49.9707 H   0  0
   -3.5134  -22.1595   50.6281 H   0  0
   -1.4897  -25.0591   53.7630 H   0  0
   -0.8602  -26.6826   53.5354 H   0  0
   -3.0414  -26.9439   54.4768 H   0  0
   -3.7514  -25.7610   53.3722 H   0  0
   -5.6041  -26.3664   53.1766 H   0  0
   -7.9171  -27.2393   52.9731 H   0  0
   -9.3967  -27.8736   53.8389 H   0  0
   -8.8859  -28.9205   50.0332 H   0  0
  -10.5685  -29.3857   50.9526 H   0  0
   -9.7403  -31.5023   51.3965 H   0  0
   -8.0570  -31.0365   50.4786 H   0  0
   -6.3789  -30.9516   51.3895 H   0  0
   -4.0592  -30.0852   51.6062 H   0  0
   -2.6255  -28.8792   50.9474 H   0  0
   -1.5088  -28.6555   52.2974 H   0  0
   -0.5555  -27.3674   50.5615 H   0  0
   -2.1025  -26.8038   49.9827 H   0  0
  1  2  1  0
  2  3  1  0
  2  4  1  0
  4  5  2  0
  4  9  1  0
  5  6  1  0
  6  7  2  0
  7  8  1  0
  8  9  2  0
  9 10  1  0
 10 11  1  0
 10 20  1  0
 10 36  1  0
 11 12  2  0
 11 13  1  0
 13 14  1  0
 14 15  2  0
 14 19  1  0
 15 16  1  0
 16 17  2  0
 17 18  1  0
 18 19  2  0
 20 21  1  0
 21 22  1  0
 22 23  1  0
 22 35  1  0
 23 24  2  0
 23 34  1  0
 24 25  1  0
 25 26  2  0
 26 27  1  0
 26 33  1  0
 27 28  1  0
 27 31  1  0
 27 32  1  0
 28 29  2  0
 28 30  1  0
 31 32  1  0
 33 34  2  0
 35 36  1  0
  1 37  1  0
  1 38  1  0
  1 39  1  0
  2 40  1  0
  3 41  1  0
  3 42  1  0
  3 43  1  0
  5 44  1  0
  6 45  1  0
  7 46  1  0
  8 47  1  0
 13 48  1  0
 15 49  1  0
 16 50  1  0
 17 51  1  0
 19 52  1  0
 20 53  1  0
 20 54  1  0
 21 55  1  0
 21 56  1  0
 24 57  1  0
 25 58  1  0
 30 59  1  0
 31 60  1  0
 31 61  1  0
 32 62  1  0
 32 63  1  0
 33 64  1  0
 34 65  1  0
 35 66  1  0
 35 67  1  0
 36 68  1  0
 36 69  1  0
M  END
> <Name>
Molecule

> <AbsoluteEnergy>
68.3734

> <Clean Energy>
200.984

> <ConfNumber>
22

> <MOL_NUMBER>
2

> <RelativeEnergy>
6.87021

> <POSE_NUMBER>
18

> <LibDockScore>
130.5762

> <HotSpots>
3.07,-24.52,50.38,A,43,6
-6.13,-22.12,49.98,A,41,17
-9.33,-29.92,51.19,A,52,32

$$$$
Molecule
  SciTegic05072616053D

 69 73  0  0  0  0            999 V2000
   -0.6110  -23.2812   47.7890 C   0  0  0  1  0  0
   -0.2847  -24.6849   48.3368 C   0  0  0  1  0  0
    0.2565  -25.6121   47.2321 C   0  0  0  1  0  0
    0.6450  -24.6208   49.5298 C   0  0  0  1  0  0
    1.9647  -24.1697   49.2875 C   0  0  0  1  0  0
    2.9011  -24.0758   50.3232 C   0  0  0  1  0  0
    2.5331  -24.4292   51.6234 C   0  0  0  1  0  0
    1.2290  -24.8753   51.8872 C   0  0  0  1  0  0
    0.2537  -24.9846   50.8603 C   0  0  0  1  0  0
   -1.1677  -25.4748   51.1919 C   0  0  0  1  0  0
   -2.1892  -24.3934   50.7755 C   0  0  0  1  0  0
   -1.8033  -23.2481   50.6615 O   0  0  0  1  0  0
   -3.5200  -24.7146   50.5277 N   0  0  0  1  0  0
   -4.6042  -23.8512   50.4221 C   0  0  0  1  0  0
   -5.9063  -24.4017   50.3569 C   0  0  0  1  0  0
   -7.0188  -23.5524   50.2755 C   0  0  0  1  0  0
   -6.8194  -22.1623   50.2503 C   0  0  0  1  0  0
   -5.5668  -21.6239   50.2870 N   0  0  0  1  0  0
   -4.4781  -22.4420   50.3658 C   0  0  0  1  0  0
   -1.3992  -25.6788   52.7269 C   0  0  0  1  0  0
   -2.7914  -26.2350   53.0861 C   0  0  0  1  0  0
   -3.1676  -27.3992   52.2290 N   0  0  0  1  0  0
   -4.4675  -27.9061   52.2002 C   0  0  0  1  0  0
   -5.5646  -27.0980   52.5768 C   0  0  0  1  0  0
   -6.8760  -27.5945   52.5388 C   0  0  0  1  0  0
   -7.1256  -28.9164   52.1248 C   0  0  0  1  0  0
   -8.5421  -29.4581   52.0897 C   0  0  0  1  0  0
   -9.3334  -29.2997   53.3997 C   0  0  0  1  0  0
  -10.1406  -30.1530   53.7118 O   0  0  0  1  0  0
   -9.1508  -28.2353   54.1883 O   0  0  0  1  0  0
   -9.3300  -29.3599   50.7875 C   0  0  0  1  0  0
   -8.7907  -30.6980   51.2364 C   0  0  0  1  0  0
   -6.0423  -29.7299   51.7428 C   0  0  0  1  0  0
   -4.7273  -29.2329   51.7855 C   0  0  0  1  0  0
   -2.0717  -27.9630   51.3905 C   0  0  0  1  0  0
   -1.3888  -26.8822   50.5145 C   0  0  0  1  0  0
   -1.3556  -23.3810   46.9992 H   0  0
    0.2981  -22.8532   47.3664 H   0  0
   -0.9920  -22.6411   48.5847 H   0  0
   -1.2197  -25.1202   48.6895 H   0  0
    1.1584  -25.1648   46.8141 H   0  0
   -0.4953  -25.6925   46.4469 H   0  0
    0.4809  -26.5982   47.6388 H   0  0
    2.2570  -23.8903   48.2753 H   0  0
    3.9133  -23.7284   50.1161 H   0  0
    3.2591  -24.3585   52.4334 H   0  0
    0.9571  -25.1452   52.9077 H   0  0
   -3.7356  -25.7552   50.4030 H   0  0
   -6.0439  -25.4829   50.3699 H   0  0
   -8.0264  -23.9659   50.2323 H   0  0
   -7.6837  -21.5000   50.2004 H   0  0
   -3.4827  -21.9983   50.3860 H   0  0
   -1.2623  -24.7238   53.2341 H   0  0
   -0.6401  -26.3612   53.1094 H   0  0
   -2.7930  -26.5468   54.1305 H   0  0
   -3.5347  -25.4474   52.9624 H   0  0
   -5.3887  -26.0726   52.9019 H   0  0
   -7.7069  -26.9526   52.8317 H   0  0
   -9.3296  -27.4147   53.5581 H   0  0
   -8.7270  -28.9310   49.9871 H   0  0
  -10.4004  -29.2741   50.9745 H   0  0
   -9.5740  -31.3253   51.6620 H   0  0
   -7.8999  -30.9815   50.6759 H   0  0
   -6.2238  -30.7523   51.4115 H   0  0
   -3.8982  -29.8783   51.4954 H   0  0
   -2.4805  -28.7393   50.7438 H   0  0
   -1.3248  -28.4189   52.0405 H   0  0
   -0.4223  -27.2653   50.1869 H   0  0
   -1.9854  -26.7424   49.6130 H   0  0
  1  2  1  0
  2  3  1  0
  2  4  1  0
  4  5  2  0
  4  9  1  0
  5  6  1  0
  6  7  2  0
  7  8  1  0
  8  9  2  0
  9 10  1  0
 10 11  1  0
 10 20  1  0
 10 36  1  0
 11 12  2  0
 11 13  1  0
 13 14  1  0
 14 15  2  0
 14 19  1  0
 15 16  1  0
 16 17  2  0
 17 18  1  0
 18 19  2  0
 20 21  1  0
 21 22  1  0
 22 23  1  0
 22 35  1  0
 23 24  2  0
 23 34  1  0
 24 25  1  0
 25 26  2  0
 26 27  1  0
 26 33  1  0
 27 28  1  0
 27 31  1  0
 27 32  1  0
 28 29  2  0
 28 30  1  0
 31 32  1  0
 33 34  2  0
 35 36  1  0
  1 37  1  0
  1 38  1  0
  1 39  1  0
  2 40  1  0
  3 41  1  0
  3 42  1  0
  3 43  1  0
  5 44  1  0
  6 45  1  0
  7 46  1  0
  8 47  1  0
 13 48  1  0
 15 49  1  0
 16 50  1  0
 17 51  1  0
 19 52  1  0
 20 53  1  0
 20 54  1  0
 21 55  1  0
 21 56  1  0
 24 57  1  0
 25 58  1  0
 30 59  1  0
 31 60  1  0
 31 61  1  0
 32 62  1  0
 32 63  1  0
 33 64  1  0
 34 65  1  0
 35 66  1  0
 35 67  1  0
 36 68  1  0
 36 69  1  0
M  END
> <Name>
Molecule

> <AbsoluteEnergy>
68.3734

> <Clean Energy>
200.984

> <ConfNumber>
22

> <MOL_NUMBER>
2

> <RelativeEnergy>
6.87021

> <POSE_NUMBER>
19

> <LibDockScore>
130.2259

> <HotSpots>
0.27,-24.92,46.38,A,19,3
3.07,-24.52,50.38,A,43,7
-6.13,-22.12,49.98,A,41,17

$$$$
Molecule
  SciTegic05072616053D

 69 73  0  0  0  0            999 V2000
    1.1788  -25.8920   47.9443 C   0  0  0  1  0  0
    0.2932  -24.7996   48.5801 C   0  0  0  1  0  0
    0.4194  -23.4654   47.8227 C   0  0  0  1  0  0
    0.5468  -24.6304   50.0612 C   0  0  0  1  0  0
    1.8585  -24.2641   50.4413 C   0  0  0  1  0  0
    2.2126  -24.1278   51.7868 C   0  0  0  1  0  0
    1.2546  -24.3400   52.7807 C   0  0  0  1  0  0
   -0.0591  -24.6680   52.4264 C   0  0  0  1  0  0
   -0.4567  -24.8140   51.0706 C   0  0  0  1  0  0
   -1.9196  -25.1599   50.7518 C   0  0  0  1  0  0
   -2.4657  -24.2700   49.6262 C   0  0  0  1  0  0
   -2.3833  -23.0661   49.7552 O   0  0  0  1  0  0
   -3.0618  -24.8030   48.4949 N   0  0  0  1  0  0
   -3.7918  -24.0933   47.5563 C   0  0  0  1  0  0
   -4.0536  -24.6612   46.2906 C   0  0  0  1  0  0
   -4.8223  -23.9396   45.3615 C   0  0  0  1  0  0
   -5.3256  -22.6736   45.7202 C   0  0  0  1  0  0
   -5.0626  -22.1181   46.9355 N   0  0  0  1  0  0
   -4.3166  -22.8092   47.8447 C   0  0  0  1  0  0
   -2.8908  -24.8275   51.9262 C   0  0  0  1  0  0
   -4.3574  -25.1743   51.6225 C   0  0  0  1  0  0
   -4.5184  -26.6257   51.3223 N   0  0  0  1  0  0
   -5.5923  -27.3284   51.8532 C   0  0  0  1  0  0
   -6.7429  -26.6241   52.2753 C   0  0  0  1  0  0
   -7.7964  -27.2961   52.9139 C   0  0  0  1  0  0
   -7.7140  -28.6814   53.1424 C   0  0  0  1  0  0
   -8.7695  -29.3884   53.9614 C   0  0  0  1  0  0
   -8.6194  -29.0998   55.4585 C   0  0  0  1  0  0
   -9.5509  -29.3090   56.2038 O   0  0  0  1  0  0
   -7.4542  -28.6217   55.9121 O   0  0  0  1  0  0
  -10.1623  -29.5692   53.3805 C   0  0  0  1  0  0
   -9.2515  -30.7652   53.5311 C   0  0  0  1  0  0
   -6.6207  -29.4040   52.6318 C   0  0  0  1  0  0
   -5.5642  -28.7326   51.9973 C   0  0  0  1  0  0
   -3.5049  -27.2689   50.4336 C   0  0  0  1  0  0
   -2.0678  -26.7097   50.5936 C   0  0  0  1  0  0
    2.2159  -25.5573   47.9658 H   0  0
    0.8720  -26.0308   46.9076 H   0  0
    1.0772  -26.8286   48.4925 H   0  0
   -0.7384  -25.1388   48.4856 H   0  0
    0.1182  -23.6219   46.7869 H   0  0
    1.4620  -23.1483   47.8451 H   0  0
   -0.2118  -22.7063   48.2846 H   0  0
    2.6080  -24.0846   49.6705 H   0  0
    3.2327  -23.8569   52.0592 H   0  0
    1.5298  -24.2502   53.8316 H   0  0
   -0.7984  -24.8157   53.2136 H   0  0
   -2.9483  -25.8545   48.3323 H   0  0
   -3.6643  -25.6472   46.0371 H   0  0
   -5.0268  -24.3547   44.3746 H   0  0
   -5.9409  -22.1249   45.0072 H   0  0
   -4.1190  -22.3618   48.8188 H   0  0
   -2.8204  -23.7639   52.1542 H   0  0
   -2.5750  -25.3776   52.8127 H   0  0
   -4.6951  -24.5920   50.7652 H   0  0
   -4.9733  -24.9164   52.4840 H   0  0
   -6.8124  -25.5500   52.1033 H   0  0
   -8.6800  -26.7435   53.2334 H   0  0
   -7.2836  -27.7457   55.3589 H   0  0
  -10.2119  -29.2296   52.3459 H   0  0
  -10.9260  -29.5450   54.1579 H   0  0
   -9.5307  -31.3776   54.3885 H   0  0
   -8.8153  -31.0611   52.5770 H   0  0
   -6.5939  -30.4893   52.7292 H   0  0
   -4.7160  -29.2992   51.6131 H   0  0
   -3.4895  -28.3394   50.6384 H   0  0
   -3.8169  -27.1421   49.3969 H   0  0
   -1.4809  -27.0240   49.7306 H   0  0
   -1.6093  -27.1891   51.4585 H   0  0
  1  2  1  0
  2  3  1  0
  2  4  1  0
  4  5  2  0
  4  9  1  0
  5  6  1  0
  6  7  2  0
  7  8  1  0
  8  9  2  0
  9 10  1  0
 10 11  1  0
 10 20  1  0
 10 36  1  0
 11 12  2  0
 11 13  1  0
 13 14  1  0
 14 15  2  0
 14 19  1  0
 15 16  1  0
 16 17  2  0
 17 18  1  0
 18 19  2  0
 20 21  1  0
 21 22  1  0
 22 23  1  0
 22 35  1  0
 23 24  2  0
 23 34  1  0
 24 25  1  0
 25 26  2  0
 26 27  1  0
 26 33  1  0
 27 28  1  0
 27 31  1  0
 27 32  1  0
 28 29  2  0
 28 30  1  0
 31 32  1  0
 33 34  2  0
 35 36  1  0
  1 37  1  0
  1 38  1  0
  1 39  1  0
  2 40  1  0
  3 41  1  0
  3 42  1  0
  3 43  1  0
  5 44  1  0
  6 45  1  0
  7 46  1  0
  8 47  1  0
 13 48  1  0
 15 49  1  0
 16 50  1  0
 17 51  1  0
 19 52  1  0
 20 53  1  0
 20 54  1  0
 21 55  1  0
 21 56  1  0
 24 57  1  0
 25 58  1  0
 30 59  1  0
 31 60  1  0
 31 61  1  0
 32 62  1  0
 32 63  1  0
 33 64  1  0
 34 65  1  0
 35 66  1  0
 35 67  1  0
 36 68  1  0
 36 69  1  0
M  END
> <Name>
Molecule

> <AbsoluteEnergy>
70.6912

> <Clean Energy>
200.984

> <ConfNumber>
32

> <MOL_NUMBER>
2

> <RelativeEnergy>
9.18806

> <POSE_NUMBER>
20

> <LibDockScore>
129.4998

> <HotSpots>
0.87,-24.32,52.78,A,63,7
-4.93,-23.52,47.59,A,26,19
-7.93,-28.32,52.38,A,59,25

$$$$
Molecule
  SciTegic05072616053D

 69 73  0  0  0  0            999 V2000
  -10.8897  -27.7971   62.9583 C   0  0  0  1  0  0
  -10.3527  -26.9496   61.7799 C   0  0  0  1  0  0
   -9.2314  -26.0335   62.3081 C   0  0  0  1  0  0
  -11.3946  -26.1712   60.9892 C   0  0  0  1  0  0
  -12.7327  -26.2419   61.4576 C   0  0  0  1  0  0
  -13.7762  -25.5540   60.8341 C   0  0  0  1  0  0
  -13.5072  -24.7577   59.7250 C   0  0  0  1  0  0
  -12.2002  -24.6626   59.2406 C   0  0  0  1  0  0
  -11.1099  -25.3684   59.8204 C   0  0  0  1  0  0
   -9.7239  -25.1673   59.1488 C   0  0  0  1  0  0
   -8.9815  -24.0067   59.8403 C   0  0  0  1  0  0
   -9.4911  -23.4564   60.7921 O   0  0  0  1  0  0
   -7.7389  -23.5972   59.3720 N   0  0  0  1  0  0
   -6.9444  -22.5335   59.7987 C   0  0  0  1  0  0
   -7.3234  -21.6065   60.8013 C   0  0  0  1  0  0
   -6.4450  -20.5669   61.1517 C   0  0  0  1  0  0
   -5.2000  -20.4636   60.5072 C   0  0  0  1  0  0
   -4.8255  -21.3526   59.5469 N   0  0  0  1  0  0
   -5.6711  -22.3637   59.1972 C   0  0  0  1  0  0
   -9.8573  -24.8154   57.6209 C   0  0  0  1  0  0
  -10.5201  -25.9330   56.7897 C   0  0  0  1  0  0
   -9.7504  -27.2054   56.9175 N   0  0  0  1  0  0
   -9.3181  -27.9421   55.8179 C   0  0  0  1  0  0
   -9.2703  -27.3648   54.5282 C   0  0  0  1  0  0
   -8.8233  -28.1075   53.4236 C   0  0  0  1  0  0
   -8.4042  -29.4377   53.5900 C   0  0  0  1  0  0
   -7.8993  -30.2239   52.4053 C   0  0  0  1  0  0
   -6.3856  -30.3586   52.4024 C   0  0  0  1  0  0
   -5.7085  -29.3991   52.1123 O   0  0  0  1  0  0
   -5.8424  -31.5324   52.7230 O   0  0  0  1  0  0
   -8.6182  -30.1008   51.0711 C   0  0  0  1  0  0
   -8.7238  -31.3812   51.8634 C   0  0  0  1  0  0
   -8.4509  -30.0257   54.8654 C   0  0  0  1  0  0
   -8.9093  -29.2874   55.9682 C   0  0  0  1  0  0
   -9.4489  -27.6194   58.3202 C   0  0  0  1  0  0
   -8.8199  -26.4410   59.0956 C   0  0  0  1  0  0
  -11.2912  -27.1446   63.7336 H   0  0
  -10.0883  -28.4088   63.3726 H   0  0
  -11.6840  -28.4492   62.5951 H   0  0
   -9.9690  -27.6541   61.0420 H   0  0
   -8.4210  -26.6357   62.7189 H   0  0
   -9.6240  -25.3715   63.0799 H   0  0
   -8.8459  -25.4317   61.4851 H   0  0
  -12.9531  -26.8532   62.3327 H   0  0
  -14.7943  -25.6403   61.2137 H   0  0
  -14.3131  -24.2103   59.2361 H   0  0
  -12.0078  -24.0199   58.3815 H   0  0
   -7.3347  -24.1803   58.5710 H   0  0
   -8.2896  -21.6991   61.2973 H   0  0
   -6.7273  -19.8453   61.9183 H   0  0
   -4.5214  -19.6560   60.7818 H   0  0
   -5.3568  -23.0677   58.4267 H   0  0
  -10.4459  -23.9038   57.5180 H   0  0
   -8.8655  -24.6160   57.2150 H   0  0
  -11.5386  -26.0911   57.1443 H   0  0
  -10.5511  -25.6349   55.7417 H   0  0
   -9.5844  -26.3303   54.3896 H   0  0
   -8.8015  -27.6505   52.4343 H   0  0
   -6.2649  -32.2221   52.0534 H   0  0
   -7.9278  -30.2018   50.2337 H   0  0
   -9.5221  -29.4979   51.1584 H   0  0
   -9.6843  -31.4611   52.3725 H   0  0
   -8.0890  -32.1644   51.4490 H   0  0
   -8.1301  -31.0588   54.9991 H   0  0
   -8.9505  -29.7565   56.9512 H   0  0
   -8.7523  -28.4577   58.3095 H   0  0
  -10.3714  -27.9255   58.8136 H   0  0
   -8.6058  -26.7653   60.1140 H   0  0
   -7.8703  -26.1800   58.6284 H   0  0
  1  2  1  0
  2  3  1  0
  2  4  1  0
  4  5  2  0
  4  9  1  0
  5  6  1  0
  6  7  2  0
  7  8  1  0
  8  9  2  0
  9 10  1  0
 10 11  1  0
 10 20  1  0
 10 36  1  0
 11 12  2  0
 11 13  1  0
 13 14  1  0
 14 15  2  0
 14 19  1  0
 15 16  1  0
 16 17  2  0
 17 18  1  0
 18 19  2  0
 20 21  1  0
 21 22  1  0
 22 23  1  0
 22 35  1  0
 23 24  2  0
 23 34  1  0
 24 25  1  0
 25 26  2  0
 26 27  1  0
 26 33  1  0
 27 28  1  0
 27 31  1  0
 27 32  1  0
 28 29  2  0
 28 30  1  0
 31 32  1  0
 33 34  2  0
 35 36  1  0
  1 37  1  0
  1 38  1  0
  1 39  1  0
  2 40  1  0
  3 41  1  0
  3 42  1  0
  3 43  1  0
  5 44  1  0
  6 45  1  0
  7 46  1  0
  8 47  1  0
 13 48  1  0
 15 49  1  0
 16 50  1  0
 17 51  1  0
 19 52  1  0
 20 53  1  0
 20 54  1  0
 21 55  1  0
 21 56  1  0
 24 57  1  0
 25 58  1  0
 30 59  1  0
 31 60  1  0
 31 61  1  0
 32 62  1  0
 32 63  1  0
 33 64  1  0
 34 65  1  0
 35 66  1  0
 35 67  1  0
 36 68  1  0
 36 69  1  0
M  END
> <Name>
Molecule

> <AbsoluteEnergy>
71.1782

> <Clean Energy>
200.984

> <ConfNumber>
37

> <MOL_NUMBER>
2

> <RelativeEnergy>
9.67504

> <POSE_NUMBER>
21

> <LibDockScore>
129.2609

> <HotSpots>
-6.93,-20.92,60.98,A,90,16
-8.73,-28.12,54.38,A,70,24
-8.53,-31.32,51.19,A,51,31

$$$$
Molecule
  SciTegic05072616053D

 69 73  0  0  0  0            999 V2000
   -2.3132  -22.6419   47.6516 C   0  0  0  1  0  0
   -3.3466  -23.7354   47.9773 C   0  0  0  1  0  0
   -3.8664  -24.4237   46.7002 C   0  0  0  1  0  0
   -4.4606  -23.2066   48.8506 C   0  0  0  1  0  0
   -5.2526  -22.1732   48.2988 C   0  0  0  1  0  0
   -6.3259  -21.6221   49.0056 C   0  0  0  1  0  0
   -6.6234  -22.0923   50.2858 C   0  0  0  1  0  0
   -5.8431  -23.1048   50.8577 C   0  0  0  1  0  0
   -4.7412  -23.6859   50.1732 C   0  0  0  1  0  0
   -3.9074  -24.7782   50.8647 C   0  0  0  1  0  0
   -2.4826  -24.2555   51.1143 C   0  0  0  1  0  0
   -2.3658  -23.2709   51.8099 O   0  0  0  1  0  0
   -1.3605  -24.8716   50.5798 N   0  0  0  1  0  0
   -0.0407  -24.7633   51.0061 C   0  0  0  1  0  0
    0.3302  -24.3251   52.3003 C   0  0  0  1  0  0
    1.6905  -24.2476   52.6400 C   0  0  0  1  0  0
    2.6620  -24.6163   51.6939 C   0  0  0  1  0  0
    2.3112  -25.0468   50.4500 N   0  0  0  1  0  0
    0.9938  -25.1212   50.1076 C   0  0  0  1  0  0
   -4.4203  -25.1181   52.3008 C   0  0  0  1  0  0
   -3.6219  -26.2285   53.0010 C   0  0  0  1  0  0
   -3.6441  -27.4951   52.2180 N   0  0  0  1  0  0
   -3.8159  -28.7230   52.8505 C   0  0  0  1  0  0
   -4.4405  -29.8100   52.1971 C   0  0  0  1  0  0
   -4.6014  -31.0425   52.8515 C   0  0  0  1  0  0
   -4.1445  -31.2101   54.1708 C   0  0  0  1  0  0
   -4.3245  -32.5336   54.8769 C   0  0  0  1  0  0
   -5.0287  -32.3979   56.2171 C   0  0  0  1  0  0
   -6.2107  -32.6454   56.2893 O   0  0  0  1  0  0
   -4.3259  -32.0079   57.2814 O   0  0  0  1  0  0
   -3.2488  -33.5997   54.7273 C   0  0  0  1  0  0
   -4.5882  -33.7895   54.0584 C   0  0  0  1  0  0
   -3.5246  -30.1355   54.8313 C   0  0  0  1  0  0
   -3.3623  -28.9033   54.1768 C   0  0  0  1  0  0
   -3.4332  -27.3875   50.7427 C   0  0  0  1  0  0
   -4.0767  -26.1336   50.0994 C   0  0  0  1  0  0
   -2.7834  -21.9020   47.0039 H   0  0
   -1.4798  -23.0998   47.1188 H   0  0
   -1.9585  -22.1680   48.5668 H   0  0
   -2.8401  -24.5063   48.5581 H   0  0
   -3.0198  -24.8664   46.1755 H   0  0
   -4.3234  -23.6687   46.0606 H   0  0
   -4.5959  -25.1935   46.9521 H   0  0
   -5.0216  -21.7984   47.3017 H   0  0
   -6.9269  -20.8298   48.5594 H   0  0
   -7.4625  -21.6717   50.8400 H   0  0
   -6.0884  -23.4584   51.8592 H   0  0
   -1.5309  -25.5079   49.7366 H   0  0
   -0.4341  -24.0501   53.0272 H   0  0
    1.9906  -23.9041   53.6300 H   0  0
    3.7172  -24.5566   51.9607 H   0  0
    0.7278  -25.4677   49.1090 H   0  0
   -4.3782  -24.2168   52.9123 H   0  0
   -5.4651  -25.4227   52.2398 H   0  0
   -2.5889  -25.9035   53.1252 H   0  0
   -4.0488  -26.4110   53.9872 H   0  0
   -4.8008  -29.6905   51.1753 H   0  0
   -5.0826  -31.8727   52.3344 H   0  0
   -3.8999  -31.0887   57.0056 H   0  0
   -3.1593  -34.2067   55.6282 H   0  0
   -2.4822  -33.2962   54.0144 H   0  0
   -4.5359  -33.5879   52.9885 H   0  0
   -5.2135  -34.4970   54.6030 H   0  0
   -3.1688  -30.2586   55.8542 H   0  0
   -2.8806  -28.0761   54.6982 H   0  0
   -3.8427  -28.2769   50.2637 H   0  0
   -2.3619  -27.3744   50.5422 H   0  0
   -3.6675  -26.0161   49.0960 H   0  0
   -5.1421  -26.3242   49.9698 H   0  0
  1  2  1  0
  2  3  1  0
  2  4  1  0
  4  5  2  0
  4  9  1  0
  5  6  1  0
  6  7  2  0
  7  8  1  0
  8  9  2  0
  9 10  1  0
 10 11  1  0
 10 20  1  0
 10 36  1  0
 11 12  2  0
 11 13  1  0
 13 14  1  0
 14 15  2  0
 14 19  1  0
 15 16  1  0
 16 17  2  0
 17 18  1  0
 18 19  2  0
 20 21  1  0
 21 22  1  0
 22 23  1  0
 22 35  1  0
 23 24  2  0
 23 34  1  0
 24 25  1  0
 25 26  2  0
 26 27  1  0
 26 33  1  0
 27 28  1  0
 27 31  1  0
 27 32  1  0
 28 29  2  0
 28 30  1  0
 31 32  1  0
 33 34  2  0
 35 36  1  0
  1 37  1  0
  1 38  1  0
  1 39  1  0
  2 40  1  0
  3 41  1  0
  3 42  1  0
  3 43  1  0
  5 44  1  0
  6 45  1  0
  7 46  1  0
  8 47  1  0
 13 48  1  0
 15 49  1  0
 16 50  1  0
 17 51  1  0
 19 52  1  0
 20 53  1  0
 20 54  1  0
 21 55  1  0
 21 56  1  0
 24 57  1  0
 25 58  1  0
 30 59  1  0
 31 60  1  0
 31 61  1  0
 32 62  1  0
 32 63  1  0
 33 64  1  0
 34 65  1  0
 35 66  1  0
 35 67  1  0
 36 68  1  0
 36 69  1  0
M  END
> <Name>
Molecule

> <AbsoluteEnergy>
65.5871

> <Clean Energy>
200.984

> <ConfNumber>
10

> <MOL_NUMBER>
2

> <RelativeEnergy>
4.08397

> <POSE_NUMBER>
22

> <LibDockScore>
128.6574

> <HotSpots>
-6.13,-22.12,49.98,A,41,7
2.47,-25.32,48.78,P,32,18
-4.33,-31.92,57.78,P,73,30

$$$$
Molecule
  SciTegic05072616053D

 69 73  0  0  0  0            999 V2000
   -4.0456  -21.5308   50.7854 C   0  0  0  1  0  0
   -5.0805  -22.4942   50.1738 C   0  0  0  1  0  0
   -6.4795  -21.8526   50.1114 C   0  0  0  1  0  0
   -4.6315  -23.0136   48.8254 C   0  0  0  1  0  0
   -4.7723  -22.1347   47.7269 C   0  0  0  1  0  0
   -4.3957  -22.5199   46.4362 C   0  0  0  1  0  0
   -3.8651  -23.7927   46.2195 C   0  0  0  1  0  0
   -3.7110  -24.6796   47.2927 C   0  0  0  1  0  0
   -4.0830  -24.3217   48.6155 C   0  0  0  1  0  0
   -3.8871  -25.3269   49.7601 C   0  0  0  1  0  0
   -2.7728  -24.8769   50.7205 C   0  0  0  1  0  0
   -3.0413  -24.6896   51.8863 O   0  0  0  1  0  0
   -1.4814  -24.6964   50.2353 N   0  0  0  1  0  0
   -0.2824  -24.6492   50.9483 C   0  0  0  1  0  0
    0.9238  -24.5434   50.2207 C   0  0  0  1  0  0
    2.1512  -24.4902   50.9012 C   0  0  0  1  0  0
    2.1646  -24.5504   52.3051 C   0  0  0  1  0  0
    1.0099  -24.6497   53.0149 N   0  0  0  1  0  0
   -0.1902  -24.6943   52.3654 C   0  0  0  1  0  0
   -5.2605  -25.5777   50.4427 C   0  0  0  1  0  0
   -5.2770  -26.5956   51.6044 C   0  0  0  1  0  0
   -4.3116  -27.7430   51.5151 N   0  0  0  1  0  0
   -4.3514  -28.7744   52.4683 C   0  0  0  1  0  0
   -3.2700  -29.6784   52.6084 C   0  0  0  1  0  0
   -3.2943  -30.6996   53.5717 C   0  0  0  1  0  0
   -4.4023  -30.8458   54.4231 C   0  0  0  1  0  0
   -4.4179  -31.9275   55.4798 C   0  0  0  1  0  0
   -4.1774  -31.3823   56.8886 C   0  0  0  1  0  0
   -4.3257  -32.1210   57.8434 O   0  0  0  1  0  0
   -3.8105  -30.1057   57.0282 O   0  0  0  1  0  0
   -5.3488  -33.1194   55.2854 C   0  0  0  1  0  0
   -3.8553  -33.3018   55.1508 C   0  0  0  1  0  0
   -5.4916  -29.9715   54.2911 C   0  0  0  1  0  0
   -5.4642  -28.9456   53.3323 C   0  0  0  1  0  0
   -3.2705  -27.7535   50.4339 C   0  0  0  1  0  0
   -3.4960  -26.7529   49.2868 C   0  0  0  1  0  0
   -4.3698  -21.2642   51.7914 H   0  0
   -4.0062  -20.6286   50.1750 H   0  0
   -3.0632  -22.0016   50.8213 H   0  0
   -5.1550  -23.3578   50.8347 H   0  0
   -6.4211  -20.9479   49.5062 H   0  0
   -6.7847  -21.5835   51.1226 H   0  0
   -7.1973  -22.5481   49.6765 H   0  0
   -5.1822  -21.1378   47.8890 H   0  0
   -4.5161  -21.8285   45.6022 H   0  0
   -3.5706  -24.0965   45.2150 H   0  0
   -3.2949  -25.6699   47.1076 H   0  0
   -1.3961  -24.5781   49.1753 H   0  0
    0.9019  -24.5031   49.1317 H   0  0
    3.0848  -24.4030   50.3455 H   0  0
    3.1172  -24.5169   52.8337 H   0  0
   -1.1059  -24.7667   52.9522 H   0  0
   -5.6393  -24.6258   50.8147 H   0  0
   -5.9678  -25.9118   49.6836 H   0  0
   -5.0853  -26.0598   52.5341 H   0  0
   -6.2841  -27.0032   51.6917 H   0  0
   -2.4025  -29.5794   51.9560 H   0  0
   -2.4492  -31.3824   53.6594 H   0  0
   -4.5624  -29.5488   56.5517 H   0  0
   -5.8396  -33.0884   54.3126 H   0  0
   -5.7162  -33.4982   56.2392 H   0  0
   -3.4277  -33.7807   56.0317 H   0  0
   -3.5508  -33.3695   54.1064 H   0  0
   -6.3629  -30.0890   54.9354 H   0  0
   -6.3139  -28.2679   53.2502 H   0  0
   -3.2171  -28.7575   50.0129 H   0  0
   -2.2997  -27.5503   50.8859 H   0  0
   -2.5844  -26.6897   48.6926 H   0  0
   -4.2827  -27.1360   48.6369 H   0  0
  1  2  1  0
  2  3  1  0
  2  4  1  0
  4  5  2  0
  4  9  1  0
  5  6  1  0
  6  7  2  0
  7  8  1  0
  8  9  2  0
  9 10  1  0
 10 11  1  0
 10 20  1  0
 10 36  1  0
 11 12  2  0
 11 13  1  0
 13 14  1  0
 14 15  2  0
 14 19  1  0
 15 16  1  0
 16 17  2  0
 17 18  1  0
 18 19  2  0
 20 21  1  0
 21 22  1  0
 22 23  1  0
 22 35  1  0
 23 24  2  0
 23 34  1  0
 24 25  1  0
 25 26  2  0
 26 27  1  0
 26 33  1  0
 27 28  1  0
 27 31  1  0
 27 32  1  0
 28 29  2  0
 28 30  1  0
 31 32  1  0
 33 34  2  0
 35 36  1  0
  1 37  1  0
  1 38  1  0
  1 39  1  0
  2 40  1  0
  3 41  1  0
  3 42  1  0
  3 43  1  0
  5 44  1  0
  6 45  1  0
  7 46  1  0
  8 47  1  0
 13 48  1  0
 15 49  1  0
 16 50  1  0
 17 51  1  0
 19 52  1  0
 20 53  1  0
 20 54  1  0
 21 55  1  0
 21 56  1  0
 24 57  1  0
 25 58  1  0
 30 59  1  0
 31 60  1  0
 31 61  1  0
 32 62  1  0
 32 63  1  0
 33 64  1  0
 34 65  1  0
 35 66  1  0
 35 67  1  0
 36 68  1  0
 36 69  1  0
M  END
> <Name>
Molecule

> <AbsoluteEnergy>
62.4783

> <Clean Energy>
200.984

> <ConfNumber>
3

> <MOL_NUMBER>
2

> <RelativeEnergy>
0.975141

> <POSE_NUMBER>
23

> <LibDockScore>
127.8843

> <HotSpots>
-3.53,-22.32,46.59,A,20,6
3.07,-24.52,50.38,A,43,16
-4.33,-31.92,57.78,P,73,29

$$$$
Molecule
  SciTegic05072616053D

 69 73  0  0  0  0            999 V2000
   -0.2450  -23.2158   48.6612 C   0  0  0  1  0  0
   -0.1686  -24.6905   49.1156 C   0  0  0  1  0  0
    0.4692  -25.5643   48.0128 C   0  0  0  1  0  0
    0.5592  -24.8595   50.4371 C   0  0  0  1  0  0
    1.9355  -24.5475   50.4361 C   0  0  0  1  0  0
    2.7105  -24.6507   51.5975 C   0  0  0  1  0  0
    2.1214  -25.0848   52.7845 C   0  0  0  1  0  0
    0.7647  -25.4234   52.8045 C   0  0  0  1  0  0
   -0.0586  -25.3110   51.6534 C   0  0  0  1  0  0
   -1.5514  -25.6754   51.7495 C   0  0  0  1  0  0
   -2.4485  -24.4400   51.4976 C   0  0  0  1  0  0
   -1.9550  -23.3357   51.4649 O   0  0  0  1  0  0
   -3.8176  -24.6194   51.3162 N   0  0  0  1  0  0
   -4.7659  -23.7292   50.8160 C   0  0  0  1  0  0
   -4.4697  -22.4263   50.3405 C   0  0  0  1  0  0
   -5.5109  -21.6216   49.8461 C   0  0  0  1  0  0
   -6.8256  -22.1181   49.8238 C   0  0  0  1  0  0
   -7.1189  -23.3648   50.2846 N   0  0  0  1  0  0
   -6.1189  -24.1574   50.7648 C   0  0  0  1  0  0
   -1.8428  -26.8140   50.6775 C   0  0  0  1  0  0
   -1.7351  -28.2744   51.1665 C   0  0  0  1  0  0
   -2.3717  -28.3713   52.4893 N   0  0  0  1  0  0
   -3.6170  -28.9097   52.7265 C   0  0  0  1  0  0
   -4.1229  -29.0790   54.0321 C   0  0  0  1  0  0
   -5.4786  -29.3921   54.2185 C   0  0  0  1  0  0
   -6.3226  -29.5196   53.1013 C   0  0  0  1  0  0
   -7.8099  -29.6092   53.2818 C   0  0  0  1  0  0
   -8.3637  -28.1924   53.2252 C   0  0  0  1  0  0
   -8.3171  -27.6083   52.1613 O   0  0  0  1  0  0
   -8.8199  -27.6180   54.3394 O   0  0  0  1  0  0
   -8.4202  -30.6806   54.1769 C   0  0  0  1  0  0
   -8.5793  -30.7689   52.6747 C   0  0  0  1  0  0
   -5.7829  -29.5085   51.8055 C   0  0  0  1  0  0
   -4.4268  -29.2284   51.6221 C   0  0  0  1  0  0
   -1.6594  -27.6226   53.5274 C   0  0  0  1  0  0
   -1.9604  -26.1417   53.2133 C   0  0  0  1  0  0
   -0.8465  -23.1534   47.7543 H   0  0
    0.7618  -22.8561   48.4489 H   0  0
   -0.6960  -22.6076   49.4452 H   0  0
   -1.1917  -25.0274   49.2825 H   0  0
    1.4733  -25.1958   47.8029 H   0  0
   -0.1350  -25.4932   47.1084 H   0  0
    0.5188  -26.6021   48.3423 H   0  0
    2.4061  -24.2185   49.5096 H   0  0
    3.7693  -24.3929   51.5740 H   0  0
    2.7168  -25.1600   53.6944 H   0  0
    0.3251  -25.7853   53.7340 H   0  0
   -4.1957  -25.5787   51.6020 H   0  0
   -3.4458  -22.0529   50.3582 H   0  0
   -5.2995  -20.6164   49.4814 H   0  0
   -7.6263  -21.4923   49.4296 H   0  0
   -6.3671  -25.1566   51.1226 H   0  0
   -1.1583  -26.6830   49.8394 H   0  0
   -2.8445  -26.6610   50.2758 H   0  0
   -0.6857  -28.5585   51.2445 H   0  0
   -2.2471  -28.9335   50.4654 H   0  0
   -3.4638  -28.9672   54.8930 H   0  0
   -5.8747  -29.5356   55.2238 H   0  0
   -8.0156  -27.6623   55.0130 H   0  0
   -9.3328  -30.3279   54.6574 H   0  0
   -7.6630  -31.3744   54.5422 H   0  0
   -7.9093  -31.5126   52.2432 H   0  0
   -9.5772  -30.4654   52.3581 H   0  0
   -6.4195  -29.7176   50.9458 H   0  0
   -3.9957  -29.2569   50.6214 H   0  0
   -2.0489  -27.8815   54.5119 H   0  0
   -0.5875  -27.8079   53.4575 H   0  0
   -1.4370  -25.5186   53.9386 H   0  0
   -3.0271  -25.9663   53.3527 H   0  0
  1  2  1  0
  2  3  1  0
  2  4  1  0
  4  5  2  0
  4  9  1  0
  5  6  1  0
  6  7  2  0
  7  8  1  0
  8  9  2  0
  9 10  1  0
 10 11  1  0
 10 20  1  0
 10 36  1  0
 11 12  2  0
 11 13  1  0
 13 14  1  0
 14 15  2  0
 14 19  1  0
 15 16  1  0
 16 17  2  0
 17 18  1  0
 18 19  2  0
 20 21  1  0
 21 22  1  0
 22 23  1  0
 22 35  1  0
 23 24  2  0
 23 34  1  0
 24 25  1  0
 25 26  2  0
 26 27  1  0
 26 33  1  0
 27 28  1  0
 27 31  1  0
 27 32  1  0
 28 29  2  0
 28 30  1  0
 31 32  1  0
 33 34  2  0
 35 36  1  0
  1 37  1  0
  1 38  1  0
  1 39  1  0
  2 40  1  0
  3 41  1  0
  3 42  1  0
  3 43  1  0
  5 44  1  0
  6 45  1  0
  7 46  1  0
  8 47  1  0
 13 48  1  0
 15 49  1  0
 16 50  1  0
 17 51  1  0
 19 52  1  0
 20 53  1  0
 20 54  1  0
 21 55  1  0
 21 56  1  0
 24 57  1  0
 25 58  1  0
 30 59  1  0
 31 60  1  0
 31 61  1  0
 32 62  1  0
 32 63  1  0
 33 64  1  0
 34 65  1  0
 35 66  1  0
 35 67  1  0
 36 68  1  0
 36 69  1  0
M  END
> <Name>
Molecule

> <AbsoluteEnergy>
77.6374

> <Clean Energy>
200.984

> <ConfNumber>
82

> <MOL_NUMBER>
2

> <RelativeEnergy>
16.1342

> <POSE_NUMBER>
24

> <LibDockScore>
126.7176

> <HotSpots>
1.67,-24.32,50.98,A,50,5
-6.13,-22.12,49.98,A,41,16
-8.53,-31.32,51.19,A,51,32

$$$$
Molecule
  SciTegic05072616053D

 69 73  0  0  0  0            999 V2000
   -0.2534  -23.1466   48.7057 C   0  0  0  1  0  0
   -0.1857  -24.6294   49.1345 C   0  0  0  1  0  0
    0.4343  -25.4899   48.0113 C   0  0  0  1  0  0
    0.5525  -24.8270   50.4462 C   0  0  0  1  0  0
    1.9291  -24.5161   50.4407 C   0  0  0  1  0  0
    2.7133  -24.6445   51.5933 C   0  0  0  1  0  0
    2.1334  -25.1033   52.7756 C   0  0  0  1  0  0
    0.7766  -25.4411   52.7994 C   0  0  0  1  0  0
   -0.0559  -25.3038   51.6576 C   0  0  0  1  0  0
   -1.5482  -25.6690   51.7580 C   0  0  0  1  0  0
   -2.4468  -24.4353   51.5029 C   0  0  0  1  0  0
   -1.9523  -23.3321   51.4515 O   0  0  0  1  0  0
   -3.8182  -24.6149   51.3402 N   0  0  0  1  0  0
   -4.7674  -23.7385   50.8177 C   0  0  0  1  0  0
   -4.4717  -22.4500   50.3043 C   0  0  0  1  0  0
   -5.5138  -21.6589   49.7903 C   0  0  0  1  0  0
   -6.8289  -22.1547   49.7862 C   0  0  0  1  0  0
   -7.1217  -23.3875   50.2833 N   0  0  0  1  0  0
   -6.1209  -24.1670   50.7829 C   0  0  0  1  0  0
   -1.8407  -26.8121   50.6911 C   0  0  0  1  0  0
   -1.7309  -28.2704   51.1858 C   0  0  0  1  0  0
   -2.3648  -28.3626   52.5101 N   0  0  0  1  0  0
   -3.6093  -28.9010   52.7519 C   0  0  0  1  0  0
   -4.0838  -29.1317   54.0599 C   0  0  0  1  0  0
   -5.4375  -29.4416   54.2651 C   0  0  0  1  0  0
   -6.3107  -29.5046   53.1650 C   0  0  0  1  0  0
   -7.7938  -29.5898   53.3790 C   0  0  0  1  0  0
   -8.3505  -28.1757   53.2918 C   0  0  0  1  0  0
   -8.3166  -27.6193   52.2126 O   0  0  0  1  0  0
   -8.7954  -27.5732   54.3956 O   0  0  0  1  0  0
   -8.3840  -30.6344   54.3182 C   0  0  0  1  0  0
   -8.5741  -30.7676   52.8229 C   0  0  0  1  0  0
   -5.8039  -29.4327   51.8579 C   0  0  0  1  0  0
   -4.4500  -29.1559   51.6541 C   0  0  0  1  0  0
   -1.6512  -27.6091   53.5439 C   0  0  0  1  0  0
   -1.9540  -26.1297   53.2244 C   0  0  0  1  0  0
   -0.8626  -23.0638   47.8057 H   0  0
    0.7545  -22.7920   48.4901 H   0  0
   -0.6919  -22.5478   49.5040 H   0  0
   -1.2102  -24.9603   49.3051 H   0  0
    1.4396  -25.1266   47.7983 H   0  0
   -0.1775  -25.3983   47.1139 H   0  0
    0.4778  -26.5335   48.3228 H   0  0
    2.3925  -24.1679   49.5176 H   0  0
    3.7721  -24.3871   51.5667 H   0  0
    2.7361  -25.1984   53.6788 H   0  0
    0.3442  -25.8222   53.7246 H   0  0
   -4.1976  -25.5620   51.6627 H   0  0
   -3.4475  -22.0771   50.3082 H   0  0
   -5.3027  -20.6647   49.3964 H   0  0
   -7.6303  -21.5397   49.3768 H   0  0
   -6.3687  -25.1554   51.1698 H   0  0
   -1.1578  -26.6840   49.8512 H   0  0
   -2.8432  -26.6615   50.2907 H   0  0
   -0.6811  -28.5533   51.2629 H   0  0
   -2.2436  -28.9327   50.4883 H   0  0
   -3.4021  -29.0696   54.9081 H   0  0
   -5.8096  -29.6323   55.2717 H   0  0
   -7.9837  -27.5989   55.0612 H   0  0
   -9.2869  -30.2681   54.8068 H   0  0
   -7.6185  -31.3164   54.6882 H   0  0
   -7.9123  -31.5234   52.4000 H   0  0
   -9.5787  -30.4743   52.5182 H   0  0
   -6.4642  -29.5922   51.0054 H   0  0
   -4.0446  -29.1375   50.6425 H   0  0
   -2.0387  -27.8644   54.5302 H   0  0
   -0.5793  -27.7938   53.4728 H   0  0
   -1.4298  -25.5033   53.9461 H   0  0
   -3.0206  -25.9546   53.3651 H   0  0
  1  2  1  0
  2  3  1  0
  2  4  1  0
  4  5  2  0
  4  9  1  0
  5  6  1  0
  6  7  2  0
  7  8  1  0
  8  9  2  0
  9 10  1  0
 10 11  1  0
 10 20  1  0
 10 36  1  0
 11 12  2  0
 11 13  1  0
 13 14  1  0
 14 15  2  0
 14 19  1  0
 15 16  1  0
 16 17  2  0
 17 18  1  0
 18 19  2  0
 20 21  1  0
 21 22  1  0
 22 23  1  0
 22 35  1  0
 23 24  2  0
 23 34  1  0
 24 25  1  0
 25 26  2  0
 26 27  1  0
 26 33  1  0
 27 28  1  0
 27 31  1  0
 27 32  1  0
 28 29  2  0
 28 30  1  0
 31 32  1  0
 33 34  2  0
 35 36  1  0
  1 37  1  0
  1 38  1  0
  1 39  1  0
  2 40  1  0
  3 41  1  0
  3 42  1  0
  3 43  1  0
  5 44  1  0
  6 45  1  0
  7 46  1  0
  8 47  1  0
 13 48  1  0
 15 49  1  0
 16 50  1  0
 17 51  1  0
 19 52  1  0
 20 53  1  0
 20 54  1  0
 21 55  1  0
 21 56  1  0
 24 57  1  0
 25 58  1  0
 30 59  1  0
 31 60  1  0
 31 61  1  0
 32 62  1  0
 32 63  1  0
 33 64  1  0
 34 65  1  0
 35 66  1  0
 35 67  1  0
 36 68  1  0
 36 69  1  0
M  END
> <Name>
Molecule

> <AbsoluteEnergy>
77.6374

> <Clean Energy>
200.984

> <ConfNumber>
82

> <MOL_NUMBER>
2

> <RelativeEnergy>
16.1342

> <POSE_NUMBER>
25

> <LibDockScore>
126.658

> <HotSpots>
2.27,-24.92,52.19,A,58,6
-4.73,-22.32,50.38,A,46,15
-9.53,-30.12,52.78,A,62,32

$$$$
Molecule
  SciTegic05072616053D

 69 73  0  0  0  0            999 V2000
    1.5581  -25.6301   46.7852 C   0  0  0  1  0  0
    0.6835  -24.6641   47.6054 C   0  0  0  1  0  0
    0.6419  -23.2678   46.9474 C   0  0  0  1  0  0
    1.1271  -24.6111   49.0526 C   0  0  0  1  0  0
    2.5165  -24.4769   49.2808 C   0  0  0  1  0  0
    3.0423  -24.4588   50.5760 C   0  0  0  1  0  0
    2.1878  -24.5881   51.6718 C   0  0  0  1  0  0
    0.8079  -24.7163   51.4706 C   0  0  0  1  0  0
    0.2325  -24.6971   50.1725 C   0  0  0  1  0  0
   -1.2985  -24.7887   50.0148 C   0  0  0  1  0  0
   -1.8419  -23.6477   49.1269 C   0  0  0  1  0  0
   -1.3263  -22.5517   49.1566 O   0  0  0  1  0  0
   -2.9285  -23.8910   48.3018 N   0  0  0  1  0  0
   -3.4675  -23.0946   47.2967 C   0  0  0  1  0  0
   -2.8463  -21.9297   46.7842 C   0  0  0  1  0  0
   -3.4887  -21.1930   45.7732 C   0  0  0  1  0  0
   -4.7324  -21.6294   45.2818 C   0  0  0  1  0  0
   -5.3269  -22.7555   45.7617 N   0  0  0  1  0  0
   -4.7155  -23.4769   46.7429 C   0  0  0  1  0  0
   -2.0712  -24.6001   51.3744 C   0  0  0  1  0  0
   -2.3629  -25.9239   52.1017 C   0  0  0  1  0  0
   -3.3155  -26.7019   51.2703 N   0  0  0  1  0  0
   -4.5073  -27.1839   51.7925 C   0  0  0  1  0  0
   -4.5144  -28.1885   52.7879 C   0  0  0  1  0  0
   -5.7296  -28.6537   53.3217 C   0  0  0  1  0  0
   -6.9512  -28.1176   52.8778 C   0  0  0  1  0  0
   -8.2566  -28.5975   53.4697 C   0  0  0  1  0  0
   -9.0076  -29.5697   52.5681 C   0  0  0  1  0  0
   -9.6135  -30.4955   53.0607 O   0  0  0  1  0  0
   -8.9836  -29.3703   51.2503 O   0  0  0  1  0  0
   -8.3744  -28.7522   54.9804 C   0  0  0  1  0  0
   -9.0845  -27.6168   54.2861 C   0  0  0  1  0  0
   -6.9505  -27.1244   51.8793 C   0  0  0  1  0  0
   -5.7401  -26.6640   51.3401 C   0  0  0  1  0  0
   -2.9560  -26.8903   49.8357 C   0  0  0  1  0  0
   -1.6048  -26.2327   49.4552 C   0  0  0  1  0  0
    2.5687  -25.2263   46.7238 H   0  0
    1.1452  -25.7135   45.7799 H   0  0
    1.5793  -26.6112   47.2596 H   0  0
   -0.3374  -25.0459   47.6094 H   0  0
    0.2337  -23.3633   45.9412 H   0  0
    1.6572  -22.8761   46.8852 H   0  0
    0.0203  -22.5940   47.5370 H   0  0
    3.1910  -24.3857   48.4294 H   0  0
    4.1153  -24.3442   50.7294 H   0  0
    2.5941  -24.5893   52.6833 H   0  0
    0.1561  -24.8343   52.3362 H   0  0
   -3.4241  -24.8259   48.4608 H   0  0
   -1.8792  -21.6071   47.1698 H   0  0
   -3.0264  -20.2905   45.3733 H   0  0
   -5.2299  -21.0541   44.5010 H   0  0
   -5.2024  -24.3785   47.1146 H   0  0
   -1.4811  -23.9605   52.0307 H   0  0
   -3.0149  -24.0911   51.1783 H   0  0
   -1.4377  -26.4871   52.2237 H   0  0
   -2.8087  -25.7185   53.0749 H   0  0
   -3.5720  -28.6049   53.1437 H   0  0
   -5.7243  -29.4336   54.0832 H   0  0
   -7.9659  -29.3552   50.9921 H   0  0
   -7.4720  -28.4121   55.4885 H   0  0
   -9.0623  -29.5546   55.2468 H   0  0
  -10.1519  -27.8122   54.1838 H   0  0
   -8.5615  -26.6705   54.4239 H   0  0
   -7.8946  -26.7116   51.5239 H   0  0
   -5.7511  -25.8979   50.5648 H   0  0
   -2.9026  -27.9578   49.6222 H   0  0
   -3.7439  -26.4647   49.2143 H   0  0
   -1.5402  -26.1972   48.3677 H   0  0
   -0.8031  -26.8993   49.7731 H   0  0
  1  2  1  0
  2  3  1  0
  2  4  1  0
  4  5  2  0
  4  9  1  0
  5  6  1  0
  6  7  2  0
  7  8  1  0
  8  9  2  0
  9 10  1  0
 10 11  1  0
 10 20  1  0
 10 36  1  0
 11 12  2  0
 11 13  1  0
 13 14  1  0
 14 15  2  0
 14 19  1  0
 15 16  1  0
 16 17  2  0
 17 18  1  0
 18 19  2  0
 20 21  1  0
 21 22  1  0
 22 23  1  0
 22 35  1  0
 23 24  2  0
 23 34  1  0
 24 25  1  0
 25 26  2  0
 26 27  1  0
 26 33  1  0
 27 28  1  0
 27 31  1  0
 27 32  1  0
 28 29  2  0
 28 30  1  0
 31 32  1  0
 33 34  2  0
 35 36  1  0
  1 37  1  0
  1 38  1  0
  1 39  1  0
  2 40  1  0
  3 41  1  0
  3 42  1  0
  3 43  1  0
  5 44  1  0
  6 45  1  0
  7 46  1  0
  8 47  1  0
 13 48  1  0
 15 49  1  0
 16 50  1  0
 17 51  1  0
 19 52  1  0
 20 53  1  0
 20 54  1  0
 21 55  1  0
 21 56  1  0
 24 57  1  0
 25 58  1  0
 30 59  1  0
 31 60  1  0
 31 61  1  0
 32 62  1  0
 32 63  1  0
 33 64  1  0
 34 65  1  0
 35 66  1  0
 35 67  1  0
 36 68  1  0
 36 69  1  0
M  END
> <Name>
Molecule

> <AbsoluteEnergy>
69.5547

> <Clean Energy>
200.984

> <ConfNumber>
28

> <MOL_NUMBER>
2

> <RelativeEnergy>
8.05157

> <POSE_NUMBER>
26

> <LibDockScore>
126.5577

> <HotSpots>
1.27,-23.52,47.59,A,27,3
2.27,-24.92,52.19,A,58,7
-4.93,-23.52,47.59,A,26,19

$$$$
Molecule
  SciTegic05072616053D

 69 73  0  0  0  0            999 V2000
   -5.3307  -24.0073   46.1201 C   0  0  0  1  0  0
   -5.1708  -22.5609   46.6326 C   0  0  0  1  0  0
   -6.1620  -21.6201   45.9189 C   0  0  0  1  0  0
   -3.7406  -22.0808   46.5183 C   0  0  0  1  0  0
   -3.4833  -21.1607   45.4738 C   0  0  0  1  0  0
   -2.2046  -20.6393   45.2556 C   0  0  0  1  0  0
   -1.1548  -21.0203   46.0903 C   0  0  0  1  0  0
   -1.3855  -21.9221   47.1387 C   0  0  0  1  0  0
   -2.6672  -22.4877   47.3871 C   0  0  0  1  0  0
   -2.8415  -23.4731   48.5634 C   0  0  0  1  0  0
   -1.5872  -23.5271   49.4802 C   0  0  0  1  0  0
   -1.6723  -23.1221   50.6191 O   0  0  0  1  0  0
   -0.3741  -24.0358   49.0230 N   0  0  0  1  0  0
    0.7781  -24.2328   49.7743 C   0  0  0  1  0  0
    0.7614  -24.3839   51.1798 C   0  0  0  1  0  0
    1.9668  -24.6194   51.8630 C   0  0  0  1  0  0
    3.1728  -24.6848   51.1407 C   0  0  0  1  0  0
    3.1968  -24.5057   49.7900 N   0  0  0  1  0  0
    2.0325  -24.2796   49.1168 C   0  0  0  1  0  0
   -3.1662  -24.9440   48.0820 C   0  0  0  1  0  0
   -4.2621  -25.6670   48.8899 C   0  0  0  1  0  0
   -4.1847  -25.3236   50.3321 N   0  0  0  1  0  0
   -3.9249  -26.2689   51.3155 C   0  0  0  1  0  0
   -3.8035  -27.6349   50.9788 C   0  0  0  1  0  0
   -3.5325  -28.5915   51.9704 C   0  0  0  1  0  0
   -3.3698  -28.2021   53.3121 C   0  0  0  1  0  0
   -3.0666  -29.2515   54.3649 C   0  0  0  1  0  0
   -1.8109  -28.9735   55.1957 C   0  0  0  1  0  0
   -1.6235  -29.6073   56.2116 O   0  0  0  1  0  0
   -0.9412  -28.0468   54.7841 O   0  0  0  1  0  0
   -3.3535  -30.6998   53.9952 C   0  0  0  1  0  0
   -4.2163  -30.0037   55.0203 C   0  0  0  1  0  0
   -3.4940  -26.8428   53.6588 C   0  0  0  1  0  0
   -3.7711  -25.8821   52.6678 C   0  0  0  1  0  0
   -4.3748  -23.8884   50.6645 C   0  0  0  1  0  0
   -4.0209  -22.9625   49.4719 C   0  0  0  1  0  0
   -5.1422  -24.0268   45.0467 H   0  0
   -6.3507  -24.3411   46.3107 H   0  0
   -4.6261  -24.6638   46.6305 H   0  0
   -5.4134  -22.5487   47.6952 H   0  0
   -7.1786  -21.9636   46.1103 H   0  0
   -5.9701  -21.6494   44.8463 H   0  0
   -6.0410  -20.6016   46.2878 H   0  0
   -4.3019  -20.8513   44.8240 H   0  0
   -2.0295  -19.9396   44.4384 H   0  0
   -0.1552  -20.6172   45.9278 H   0  0
   -0.5538  -22.1997   47.7862 H   0  0
   -0.3242  -24.3020   47.9879 H   0  0
   -0.1780  -24.3183   51.7287 H   0  0
    1.9676  -24.7505   52.9451 H   0  0
    4.1044  -24.8822   51.6711 H   0  0
    2.0680  -24.1300   48.0377 H   0  0
   -3.4709  -24.9102   47.0360 H   0  0
   -2.2529  -25.5373   48.1273 H   0  0
   -5.2406  -25.3790   48.5056 H   0  0
   -4.1448  -26.7442   48.7721 H   0  0
   -3.9210  -27.9490   49.9417 H   0  0
   -3.4476  -29.6436   51.6983 H   0  0
   -1.5092  -27.1691   54.6870 H   0  0
   -2.6425  -31.3805   54.4634 H   0  0
   -3.8553  -30.7738   53.0304 H   0  0
   -5.1782  -29.7073   54.6020 H   0  0
   -3.9645  -30.3127   56.0348 H   0  0
   -3.3753  -26.5337   54.6973 H   0  0
   -3.8679  -24.8322   52.9444 H   0  0
   -5.4142  -23.7230   50.9482 H   0  0
   -3.7428  -23.6319   51.5147 H   0  0
   -3.7615  -21.9778   49.8608 H   0  0
   -4.9099  -22.8361   48.8540 H   0  0
  1  2  1  0
  2  3  1  0
  2  4  1  0
  4  5  2  0
  4  9  1  0
  5  6  1  0
  6  7  2  0
  7  8  1  0
  8  9  2  0
  9 10  1  0
 10 11  1  0
 10 20  1  0
 10 36  1  0
 11 12  2  0
 11 13  1  0
 13 14  1  0
 14 15  2  0
 14 19  1  0
 15 16  1  0
 16 17  2  0
 17 18  1  0
 18 19  2  0
 20 21  1  0
 21 22  1  0
 22 23  1  0
 22 35  1  0
 23 24  2  0
 23 34  1  0
 24 25  1  0
 25 26  2  0
 26 27  1  0
 26 33  1  0
 27 28  1  0
 27 31  1  0
 27 32  1  0
 28 29  2  0
 28 30  1  0
 31 32  1  0
 33 34  2  0
 35 36  1  0
  1 37  1  0
  1 38  1  0
  1 39  1  0
  2 40  1  0
  3 41  1  0
  3 42  1  0
  3 43  1  0
  5 44  1  0
  6 45  1  0
  7 46  1  0
  8 47  1  0
 13 48  1  0
 15 49  1  0
 16 50  1  0
 17 51  1  0
 19 52  1  0
 20 53  1  0
 20 54  1  0
 21 55  1  0
 21 56  1  0
 24 57  1  0
 25 58  1  0
 30 59  1  0
 31 60  1  0
 31 61  1  0
 32 62  1  0
 32 63  1  0
 33 64  1  0
 34 65  1  0
 35 66  1  0
 35 67  1  0
 36 68  1  0
 36 69  1  0
M  END
> <Name>
Molecule

> <AbsoluteEnergy>
72.1369

> <Clean Energy>
200.984

> <ConfNumber>
47

> <MOL_NUMBER>
2

> <RelativeEnergy>
10.6338

> <POSE_NUMBER>
27

> <LibDockScore>
125.4498

> <HotSpots>
-3.53,-20.52,45.19,A,12,5
3.07,-24.52,50.38,A,43,17
-0.93,-29.52,55.38,P,63,29

$$$$
Molecule
  SciTegic05072616053D

 69 73  0  0  0  0            999 V2000
   -4.1432  -24.6267   47.1363 C   0  0  0  1  0  0
   -3.3888  -24.2661   48.4326 C   0  0  0  1  0  0
   -2.7436  -22.8712   48.3394 C   0  0  0  1  0  0
   -4.2505  -24.4090   49.6658 C   0  0  0  1  0  0
   -5.4416  -23.6498   49.6750 C   0  0  0  1  0  0
   -6.3539  -23.7482   50.7299 C   0  0  0  1  0  0
   -6.0896  -24.6115   51.7973 C   0  0  0  1  0  0
   -4.8945  -25.3451   51.8285 C   0  0  0  1  0  0
   -3.9290  -25.2489   50.7878 C   0  0  0  1  0  0
   -2.5981  -26.0215   50.8871 C   0  0  0  1  0  0
   -1.4454  -25.0098   50.7208 C   0  0  0  1  0  0
   -1.3878  -24.1395   51.5624 O   0  0  0  1  0  0
   -0.5109  -25.0463   49.6866 N   0  0  0  1  0  0
    0.8215  -24.6401   49.7735 C   0  0  0  1  0  0
    1.4640  -24.3767   51.0061 C   0  0  0  1  0  0
    2.8046  -23.9580   51.0179 C   0  0  0  1  0  0
    3.4969  -23.8151   49.8016 C   0  0  0  1  0  0
    2.8875  -24.0703   48.6099 N   0  0  0  1  0  0
    1.5811  -24.4755   48.5866 C   0  0  0  1  0  0
   -2.2890  -26.6388   52.3110 C   0  0  0  1  0  0
   -2.7128  -28.1104   52.5538 C   0  0  0  1  0  0
   -3.9242  -28.4692   51.7765 N   0  0  0  1  0  0
   -5.0795  -28.9248   52.4156 C   0  0  0  1  0  0
   -6.3309  -28.8630   51.7623 C   0  0  0  1  0  0
   -7.5192  -29.1348   52.4655 C   0  0  0  1  0  0
   -7.4673  -29.4690   53.8306 C   0  0  0  1  0  0
   -8.7285  -29.5325   54.6549 C   0  0  0  1  0  0
   -8.8953  -28.2195   55.4141 C   0  0  0  1  0  0
   -8.5823  -28.1773   56.5828 O   0  0  0  1  0  0
   -9.3386  -27.1340   54.7863 O   0  0  0  1  0  0
   -9.9452  -30.3079   54.1702 C   0  0  0  1  0  0
   -9.1460  -30.8274   55.3405 C   0  0  0  1  0  0
   -6.2272  -29.6962   54.4460 C   0  0  0  1  0  0
   -5.0382  -29.4230   53.7446 C   0  0  0  1  0  0
   -3.8167  -28.2391   50.3002 C   0  0  0  1  0  0
   -2.6575  -27.2617   49.9381 C   0  0  0  1  0  0
   -3.4378  -24.6059   46.3056 H   0  0
   -4.9164  -23.8780   46.9636 H   0  0
   -4.5926  -25.6161   47.2210 H   0  0
   -2.5834  -24.9928   48.5393 H   0  0
   -3.5277  -22.1363   48.1573 H   0  0
   -2.0492  -22.8641   47.4993 H   0  0
   -2.2158  -22.6342   49.2632 H   0  0
   -5.6532  -22.9755   48.8452 H   0  0
   -7.2677  -23.1541   50.7201 H   0  0
   -6.8130  -24.7146   52.6061 H   0  0
   -4.7002  -26.0067   52.6727 H   0  0
   -0.8454  -25.4193   48.7412 H   0  0
    0.9206  -24.4983   51.9432 H   0  0
    3.3050  -23.7453   51.9626 H   0  0
    4.5387  -23.4947   49.8127 H   0  0
    1.1087  -24.6784   47.6255 H   0  0
   -1.2176  -26.5580   52.4947 H   0  0
   -2.7688  -26.0171   53.0670 H   0  0
   -1.8953  -28.7708   52.2647 H   0  0
   -2.9146  -28.2555   53.6151 H   0  0
   -6.3762  -28.6026   50.7048 H   0  0
   -8.4796  -29.0863   51.9523 H   0  0
  -10.2568  -27.4276   54.3700 H   0  0
   -9.7285  -30.8623   53.2571 H   0  0
  -10.8736  -29.8373   54.4939 H   0  0
   -9.6481  -30.6338   56.2884 H   0  0
   -8.5017  -31.6577   55.0513 H   0  0
   -6.1848  -30.0831   55.4641 H   0  0
   -4.0758  -29.5956   54.2264 H   0  0
   -3.6461  -29.1939   49.8028 H   0  0
   -4.7571  -27.8273   49.9339 H   0  0
   -2.7905  -26.9183   48.9122 H   0  0
   -1.7106  -27.7987   49.9937 H   0  0
  1  2  1  0
  2  3  1  0
  2  4  1  0
  4  5  2  0
  4  9  1  0
  5  6  1  0
  6  7  2  0
  7  8  1  0
  8  9  2  0
  9 10  1  0
 10 11  1  0
 10 20  1  0
 10 36  1  0
 11 12  2  0
 11 13  1  0
 13 14  1  0
 14 15  2  0
 14 19  1  0
 15 16  1  0
 16 17  2  0
 17 18  1  0
 18 19  2  0
 20 21  1  0
 21 22  1  0
 22 23  1  0
 22 35  1  0
 23 24  2  0
 23 34  1  0
 24 25  1  0
 25 26  2  0
 26 27  1  0
 26 33  1  0
 27 28  1  0
 27 31  1  0
 27 32  1  0
 28 29  2  0
 28 30  1  0
 31 32  1  0
 33 34  2  0
 35 36  1  0
  1 37  1  0
  1 38  1  0
  1 39  1  0
  2 40  1  0
  3 41  1  0
  3 42  1  0
  3 43  1  0
  5 44  1  0
  6 45  1  0
  7 46  1  0
  8 47  1  0
 13 48  1  0
 15 49  1  0
 16 50  1  0
 17 51  1  0
 19 52  1  0
 20 53  1  0
 20 54  1  0
 21 55  1  0
 21 56  1  0
 24 57  1  0
 25 58  1  0
 30 59  1  0
 31 60  1  0
 31 61  1  0
 32 62  1  0
 32 63  1  0
 33 64  1  0
 34 65  1  0
 35 66  1  0
 35 67  1  0
 36 68  1  0
 36 69  1  0
M  END
> <Name>
Molecule

> <AbsoluteEnergy>
75.4954

> <Clean Energy>
200.984

> <ConfNumber>
67

> <MOL_NUMBER>
2

> <RelativeEnergy>
13.9923

> <POSE_NUMBER>
28

> <LibDockScore>
125.2992

> <HotSpots>
-5.93,-24.72,51.19,A,53,7
1.67,-24.32,50.98,A,50,15
-7.93,-28.32,52.38,A,59,25

$$$$
Molecule
  SciTegic05072616053D

 69 73  0  0  0  0            999 V2000
   -4.0783  -21.7572   50.8400 C   0  0  0  1  0  0
   -4.7285  -23.1459   50.6985 C   0  0  0  1  0  0
   -6.2357  -23.0972   51.0146 C   0  0  0  1  0  0
   -4.4451  -23.7577   49.3422 C   0  0  0  1  0  0
   -4.9155  -23.0449   48.2188 C   0  0  0  1  0  0
   -4.6937  -23.5096   46.9181 C   0  0  0  1  0  0
   -3.9863  -24.6963   46.7188 C   0  0  0  1  0  0
   -3.5118  -25.4210   47.8183 C   0  0  0  1  0  0
   -3.7386  -24.9904   49.1482 C   0  0  0  1  0  0
   -3.2342  -25.8421   50.3178 C   0  0  0  1  0  0
   -1.9932  -25.2235   50.9866 C   0  0  0  1  0  0
   -1.9889  -25.0897   52.1895 O   0  0  0  1  0  0
   -0.9049  -24.8284   50.2176 N   0  0  0  1  0  0
    0.4307  -24.7466   50.6070 C   0  0  0  1  0  0
    1.3901  -24.3312   49.6539 C   0  0  0  1  0  0
    2.7420  -24.2350   50.0228 C   0  0  0  1  0  0
    3.1240  -24.5572   51.3372 C   0  0  0  1  0  0
    2.2077  -24.9645   52.2586 N   0  0  0  1  0  0
    0.8913  -25.0643   51.9111 C   0  0  0  1  0  0
   -4.4184  -25.9979   51.3453 C   0  0  0  1  0  0
   -5.4606  -27.0596   50.9532 C   0  0  0  1  0  0
   -4.7223  -28.3321   50.8456 N   0  0  0  1  0  0
   -4.7572  -29.2923   51.8437 C   0  0  0  1  0  0
   -3.6410  -30.1330   52.0358 C   0  0  0  1  0  0
   -3.5486  -30.9306   53.1820 C   0  0  0  1  0  0
   -4.5730  -30.8928   54.1420 C   0  0  0  1  0  0
   -4.3461  -31.5391   55.4811 C   0  0  0  1  0  0
   -3.7056  -30.5439   56.4546 C   0  0  0  1  0  0
   -2.6453  -30.0279   56.1660 O   0  0  0  1  0  0
   -4.3255  -30.2542   57.5939 O   0  0  0  1  0  0
   -3.9361  -33.0005   55.5494 C   0  0  0  1  0  0
   -5.3210  -32.5898   55.9894 C   0  0  0  1  0  0
   -5.7700  -30.2094   53.8675 C   0  0  0  1  0  0
   -5.8652  -29.4138   52.7158 C   0  0  0  1  0  0
   -3.8064  -28.3685   49.6893 C   0  0  0  1  0  0
   -2.7229  -27.2833   49.9077 C   0  0  0  1  0  0
   -4.2256  -21.4061   51.8613 H   0  0
   -4.5728  -21.0695   50.1540 H   0  0
   -3.0136  -21.8114   50.6128 H   0  0
   -4.2716  -23.8017   51.4396 H   0  0
   -6.7134  -22.3991   50.3272 H   0  0
   -6.3662  -22.7356   52.0346 H   0  0
   -6.6780  -24.0878   50.9093 H   0  0
   -5.4625  -22.1139   48.3675 H   0  0
   -5.0716  -22.9475   46.0641 H   0  0
   -3.8034  -25.0586   45.7072 H   0  0
   -2.9530  -26.3410   47.6464 H   0  0
   -1.1181  -24.5542   49.2055 H   0  0
    1.0815  -24.0868   48.6375 H   0  0
    3.4885  -23.9134   49.2965 H   0  0
    4.1728  -24.4795   51.6238 H   0  0
    0.1717  -25.3984   52.6585 H   0  0
   -4.9216  -25.0368   51.4515 H   0  0
   -4.0058  -26.2564   52.3205 H   0  0
   -5.9061  -26.8060   49.9913 H   0  0
   -6.2222  -27.1361   51.7292 H   0  0
   -2.8476  -30.1615   51.2889 H   0  0
   -2.6847  -31.5788   53.3291 H   0  0
   -4.4658  -31.1806   58.0678 H   0  0
   -3.2845  -33.1943   56.4015 H   0  0
   -3.9487  -33.4658   54.5638 H   0  0
   -6.0712  -32.8364   55.2381 H   0  0
   -5.4066  -32.5632   57.0757 H   0  0
   -6.6192  -30.2969   54.5452 H   0  0
   -6.7938  -28.8885   52.4924 H   0  0
   -3.3349  -29.3491   49.6243 H   0  0
   -4.3590  -28.1552   48.7743 H   0  0
   -2.1379  -27.1941   48.9923 H   0  0
   -2.0338  -27.6370   50.6746 H   0  0
  1  2  1  0
  2  3  1  0
  2  4  1  0
  4  5  2  0
  4  9  1  0
  5  6  1  0
  6  7  2  0
  7  8  1  0
  8  9  2  0
  9 10  1  0
 10 11  1  0
 10 20  1  0
 10 36  1  0
 11 12  2  0
 11 13  1  0
 13 14  1  0
 14 15  2  0
 14 19  1  0
 15 16  1  0
 16 17  2  0
 17 18  1  0
 18 19  2  0
 20 21  1  0
 21 22  1  0
 22 23  1  0
 22 35  1  0
 23 24  2  0
 23 34  1  0
 24 25  1  0
 25 26  2  0
 26 27  1  0
 26 33  1  0
 27 28  1  0
 27 31  1  0
 27 32  1  0
 28 29  2  0
 28 30  1  0
 31 32  1  0
 33 34  2  0
 35 36  1  0
  1 37  1  0
  1 38  1  0
  1 39  1  0
  2 40  1  0
  3 41  1  0
  3 42  1  0
  3 43  1  0
  5 44  1  0
  6 45  1  0
  7 46  1  0
  8 47  1  0
 13 48  1  0
 15 49  1  0
 16 50  1  0
 17 51  1  0
 19 52  1  0
 20 53  1  0
 20 54  1  0
 21 55  1  0
 21 56  1  0
 24 57  1  0
 25 58  1  0
 30 59  1  0
 31 60  1  0
 31 61  1  0
 32 62  1  0
 32 63  1  0
 33 64  1  0
 34 65  1  0
 35 66  1  0
 35 67  1  0
 36 68  1  0
 36 69  1  0
M  END
> <Name>
Molecule

> <AbsoluteEnergy>
71.5006

> <Clean Energy>
200.984

> <ConfNumber>
40

> <MOL_NUMBER>
2

> <RelativeEnergy>
9.9974

> <POSE_NUMBER>
29

> <LibDockScore>
124.9839

> <HotSpots>
-2.53,-22.32,48.19,A,29,5
2.27,-24.92,52.19,A,58,19
-4.13,-30.52,57.38,P,71,30

$$$$
Molecule
  SciTegic05072616053D

 69 73  0  0  0  0            999 V2000
   -0.4581  -23.2811   48.7308 C   0  0  0  1  0  0
   -0.3512  -24.7545   49.1833 C   0  0  0  1  0  0
    0.2653  -25.6213   48.0631 C   0  0  0  1  0  0
    0.4160  -24.9140   50.4836 C   0  0  0  1  0  0
    1.7889  -24.5903   50.4420 C   0  0  0  1  0  0
    2.5981  -24.6840   51.5807 C   0  0  0  1  0  0
    2.0473  -25.1200   52.7852 C   0  0  0  1  0  0
    0.6947  -25.4701   52.8453 C   0  0  0  1  0  0
   -0.1625  -25.3677   51.7182 C   0  0  0  1  0  0
   -1.6487  -25.7445   51.8584 C   0  0  0  1  0  0
   -2.5646  -24.5262   51.5916 C   0  0  0  1  0  0
   -2.0852  -23.4172   51.5250 O   0  0  0  1  0  0
   -3.9341  -24.7260   51.4362 N   0  0  0  1  0  0
   -4.8926  -23.8791   50.8831 C   0  0  0  1  0  0
   -4.6189  -22.5855   50.3702 C   0  0  0  1  0  0
   -5.6681  -21.8264   49.8236 C   0  0  0  1  0  0
   -6.9685  -22.3585   49.7871 C   0  0  0  1  0  0
   -7.2404  -23.5963   50.2836 N   0  0  0  1  0  0
   -6.2324  -24.3450   50.8145 C   0  0  0  1  0  0
   -1.9514  -26.9164   50.8262 C   0  0  0  1  0  0
   -1.8169  -28.3609   51.3542 C   0  0  0  1  0  0
   -2.4228  -28.4263   52.6932 N   0  0  0  1  0  0
   -3.6566  -28.9703   52.9737 C   0  0  0  1  0  0
   -4.0461  -29.3044   54.2875 C   0  0  0  1  0  0
   -5.3877  -29.6166   54.5580 C   0  0  0  1  0  0
   -6.3334  -29.5790   53.5183 C   0  0  0  1  0  0
   -7.8000  -29.6668   53.8248 C   0  0  0  1  0  0
   -8.2995  -28.2517   54.0801 C   0  0  0  1  0  0
   -8.3242  -27.4818   53.1410 O   0  0  0  1  0  0
   -8.6315  -27.8832   55.3184 O   0  0  0  1  0  0
   -8.3675  -30.8705   54.5668 C   0  0  0  1  0  0
   -8.6682  -30.6775   53.0964 C   0  0  0  1  0  0
   -5.9141  -29.4036   52.1902 C   0  0  0  1  0  0
   -4.5727  -29.1245   51.9183 C   0  0  0  1  0  0
   -1.6958  -27.6407   53.6932 C   0  0  0  1  0  0
   -2.0199  -26.1726   53.3437 C   0  0  0  1  0  0
   -1.0859  -23.2265   47.8414 H   0  0
    0.5379  -22.9096   48.4898 H   0  0
   -0.8939  -22.6778   49.5272 H   0  0
   -1.3651  -25.1034   49.3794 H   0  0
    1.2586  -25.2410   47.8246 H   0  0
   -0.3652  -25.5580   47.1762 H   0  0
    0.3366  -26.6582   48.3914 H   0  0
    2.2296  -24.2596   49.5015 H   0  0
    3.6536  -24.4174   51.5259 H   0  0
    2.6694  -25.1878   53.6777 H   0  0
    0.2853  -25.8333   53.7879 H   0  0
   -4.3034  -25.6648   51.7928 H   0  0
   -3.6059  -22.1843   50.3995 H   0  0
   -5.4740  -20.8288   49.4295 H   0  0
   -7.7752  -21.7682   49.3526 H   0  0
   -6.4633  -25.3378   51.2006 H   0  0
   -1.2871  -26.8026   49.9695 H   0  0
   -2.9634  -26.7854   50.4430 H   0  0
   -0.7629  -28.6318   51.4166 H   0  0
   -2.3371  -29.0451   50.6839 H   0  0
   -3.3082  -29.3201   55.0896 H   0  0
   -5.6946  -29.8867   55.5684 H   0  0
   -7.7730  -28.0699   55.8933 H   0  0
   -9.2169  -30.5917   55.1904 H   0  0
   -7.6083  -31.6365   54.7245 H   0  0
   -8.0713  -31.3440   52.4738 H   0  0
   -9.6781  -30.2985   52.9395 H   0  0
   -6.6324  -29.4849   51.3744 H   0  0
   -4.2357  -29.0261   50.8864 H   0  0
   -2.0605  -27.8751   54.6933 H   0  0
   -0.6238  -27.8169   53.6045 H   0  0
   -1.4874  -25.5235   54.0389 H   0  0
   -3.0851  -26.0043   53.5020 H   0  0
  1  2  1  0
  2  3  1  0
  2  4  1  0
  4  5  2  0
  4  9  1  0
  5  6  1  0
  6  7  2  0
  7  8  1  0
  8  9  2  0
  9 10  1  0
 10 11  1  0
 10 20  1  0
 10 36  1  0
 11 12  2  0
 11 13  1  0
 13 14  1  0
 14 15  2  0
 14 19  1  0
 15 16  1  0
 16 17  2  0
 17 18  1  0
 18 19  2  0
 20 21  1  0
 21 22  1  0
 22 23  1  0
 22 35  1  0
 23 24  2  0
 23 34  1  0
 24 25  1  0
 25 26  2  0
 26 27  1  0
 26 33  1  0
 27 28  1  0
 27 31  1  0
 27 32  1  0
 28 29  2  0
 28 30  1  0
 31 32  1  0
 33 34  2  0
 35 36  1  0
  1 37  1  0
  1 38  1  0
  1 39  1  0
  2 40  1  0
  3 41  1  0
  3 42  1  0
  3 43  1  0
  5 44  1  0
  6 45  1  0
  7 46  1  0
  8 47  1  0
 13 48  1  0
 15 49  1  0
 16 50  1  0
 17 51  1  0
 19 52  1  0
 20 53  1  0
 20 54  1  0
 21 55  1  0
 21 56  1  0
 24 57  1  0
 25 58  1  0
 30 59  1  0
 31 60  1  0
 31 61  1  0
 32 62  1  0
 32 63  1  0
 33 64  1  0
 34 65  1  0
 35 66  1  0
 35 67  1  0
 36 68  1  0
 36 69  1  0
M  END
> <Name>
Molecule

> <AbsoluteEnergy>
77.6374

> <Clean Energy>
200.984

> <ConfNumber>
82

> <MOL_NUMBER>
2

> <RelativeEnergy>
16.1342

> <POSE_NUMBER>
30

> <LibDockScore>
124.4549

> <HotSpots>
2.27,-24.92,52.19,A,58,7
-6.13,-22.12,49.98,A,41,16
-7.73,-27.92,56.98,P,70,30

$$$$
Molecule
  SciTegic05072616053D

 69 73  0  0  0  0            999 V2000
   -8.4228  -28.6578   56.0620 C   0  0  0  1  0  0
   -7.5197  -29.2182   54.9376 C   0  0  0  1  0  0
   -7.0256  -30.6255   55.3228 C   0  0  0  1  0  0
   -8.1340  -29.2237   53.5520 C   0  0  0  1  0  0
   -9.4700  -29.6905   53.4411 C   0  0  0  1  0  0
  -10.1266  -29.7634   52.2086 C   0  0  0  1  0  0
   -9.4600  -29.3834   51.0441 C   0  0  0  1  0  0
   -8.1431  -28.9237   51.1223 C   0  0  0  1  0  0
   -7.4480  -28.8090   52.3544 C   0  0  0  1  0  0
   -6.0163  -28.2634   52.2075 C   0  0  0  1  0  0
   -6.1170  -26.7615   51.8385 C   0  0  0  1  0  0
   -6.8599  -26.0800   52.5103 O   0  0  0  1  0  0
   -5.3873  -26.2061   50.7938 N   0  0  0  1  0  0
   -5.4509  -24.9229   50.2544 C   0  0  0  1  0  0
   -4.5811  -24.6123   49.1813 C   0  0  0  1  0  0
   -4.5679  -23.3186   48.6408 C   0  0  0  1  0  0
   -5.4318  -22.3456   49.1692 C   0  0  0  1  0  0
   -6.2909  -22.6386   50.1847 N   0  0  0  1  0  0
   -6.3121  -23.8939   50.7200 C   0  0  0  1  0  0
   -5.0768  -28.2095   53.4588 C   0  0  0  1  0  0
   -3.6792  -27.5971   53.1518 C   0  0  0  1  0  0
   -3.1944  -27.9915   51.7905 N   0  0  0  1  0  0
   -2.4038  -27.1563   50.9887 C   0  0  0  1  0  0
   -2.0444  -27.5230   49.6674 C   0  0  0  1  0  0
   -1.3521  -26.6340   48.8317 C   0  0  0  1  0  0
   -0.9830  -25.3639   49.2995 C   0  0  0  1  0  0
   -0.2760  -24.3915   48.3831 C   0  0  0  1  0  0
    1.1976  -24.7135   48.1754 C   0  0  0  1  0  0
    1.6874  -24.5923   47.0753 O   0  0  0  1  0  0
    1.9180  -25.1196   49.2201 O   0  0  0  1  0  0
   -0.6790  -22.9255   48.4353 C   0  0  0  1  0  0
   -1.0594  -23.7641   47.2388 C   0  0  0  1  0  0
   -1.2841  -25.0027   50.6235 C   0  0  0  1  0  0
   -1.9714  -25.8946   51.4632 C   0  0  0  1  0  0
   -3.7446  -29.2978   51.3407 C   0  0  0  1  0  0
   -5.2808  -29.1996   51.1715 C   0  0  0  1  0  0
   -7.8539  -28.6012   56.9900 H   0  0
   -9.2793  -29.3173   56.2021 H   0  0
   -8.7718  -27.6621   55.7884 H   0  0
   -6.6834  -28.5236   54.8593 H   0  0
   -7.8820  -31.2851   55.4629 H   0  0
   -6.4567  -30.5689   56.2508 H   0  0
   -6.3895  -31.0193   54.5300 H   0  0
   -9.9990  -30.0009   54.3421 H   0  0
  -11.1567  -30.1163   52.1582 H   0  0
   -9.9632  -29.4447   50.0792 H   0  0
   -7.6302  -28.6426   50.2025 H   0  0
   -4.6728  -26.8589   50.3375 H   0  0
   -3.9215  -25.3792   48.7752 H   0  0
   -3.8949  -23.0709   47.8200 H   0  0
   -5.4145  -21.3361   48.7586 H   0  0
   -7.0100  -24.1130   51.5281 H   0  0
   -5.5581  -27.6178   54.2375 H   0  0
   -4.9421  -29.2198   53.8452 H   0  0
   -2.9639  -27.9408   53.8990 H   0  0
   -3.7437  -26.5104   53.2072 H   0  0
   -2.3104  -28.5121   49.2946 H   0  0
   -1.0997  -26.9315   47.8139 H   0  0
    1.4154  -25.9639   49.5901 H   0  0
    0.1643  -22.2707   48.2158 H   0  0
   -1.5268  -22.7677   49.1020 H   0  0
   -2.1100  -24.0530   47.2677 H   0  0
   -0.4181  -23.5572   46.3821 H   0  0
   -0.9828  -24.0255   51.0009 H   0  0
   -2.1749  -25.6110   52.4958 H   0  0
   -3.2929  -29.5715   50.3872 H   0  0
   -3.5111  -30.0637   52.0803 H   0  0
   -5.7026  -30.2018   51.2470 H   0  0
   -5.4962  -28.8432   50.1642 H   0  0
  1  2  1  0
  2  3  1  0
  2  4  1  0
  4  5  2  0
  4  9  1  0
  5  6  1  0
  6  7  2  0
  7  8  1  0
  8  9  2  0
  9 10  1  0
 10 11  1  0
 10 20  1  0
 10 36  1  0
 11 12  2  0
 11 13  1  0
 13 14  1  0
 14 15  2  0
 14 19  1  0
 15 16  1  0
 16 17  2  0
 17 18  1  0
 18 19  2  0
 20 21  1  0
 21 22  1  0
 22 23  1  0
 22 35  1  0
 23 24  2  0
 23 34  1  0
 24 25  1  0
 25 26  2  0
 26 27  1  0
 26 33  1  0
 27 28  1  0
 27 31  1  0
 27 32  1  0
 28 29  2  0
 28 30  1  0
 31 32  1  0
 33 34  2  0
 35 36  1  0
  1 37  1  0
  1 38  1  0
  1 39  1  0
  2 40  1  0
  3 41  1  0
  3 42  1  0
  3 43  1  0
  5 44  1  0
  6 45  1  0
  7 46  1  0
  8 47  1  0
 13 48  1  0
 15 49  1  0
 16 50  1  0
 17 51  1  0
 19 52  1  0
 20 53  1  0
 20 54  1  0
 21 55  1  0
 21 56  1  0
 24 57  1  0
 25 58  1  0
 30 59  1  0
 31 60  1  0
 31 61  1  0
 32 62  1  0
 32 63  1  0
 33 64  1  0
 34 65  1  0
 35 66  1  0
 35 67  1  0
 36 68  1  0
 36 69  1  0
M  END
> <Name>
Molecule

> <AbsoluteEnergy>
76.0706

> <Clean Energy>
200.984

> <ConfNumber>
72

> <MOL_NUMBER>
2

> <RelativeEnergy>
14.5675

> <POSE_NUMBER>
31

> <LibDockScore>
124.2256

> <HotSpots>
-9.33,-29.92,51.19,A,52,7
-5.93,-24.72,51.19,A,53,19
2.47,-25.32,48.78,P,32,29

$$$$
Molecule
  SciTegic05072616053D

 69 73  0  0  0  0            999 V2000
    2.6348  -25.5183   52.9804 C   0  0  0  1  0  0
    1.3271  -24.7424   52.7315 C   0  0  0  1  0  0
    1.1685  -23.6189   53.7833 C   0  0  0  1  0  0
    1.2362  -24.2825   51.2897 C   0  0  0  1  0  0
    2.3429  -23.5339   50.8120 C   0  0  0  1  0  0
    2.3955  -23.0319   49.5079 C   0  0  0  1  0  0
    1.3362  -23.2754   48.6370 C   0  0  0  1  0  0
    0.2393  -24.0271   49.0723 C   0  0  0  1  0  0
    0.1417  -24.5560   50.3865 C   0  0  0  1  0  0
   -1.1429  -25.3765   50.6379 C   0  0  0  1  0  0
   -1.6745  -25.8583   49.2786 C   0  0  0  1  0  0
   -1.1255  -26.8042   48.7567 O   0  0  0  1  0  0
   -2.7625  -25.2371   48.6821 N   0  0  0  1  0  0
   -3.2683  -25.4117   47.3978 C   0  0  0  1  0  0
   -4.3188  -24.5653   46.9692 C   0  0  0  1  0  0
   -4.9187  -24.7783   45.7195 C   0  0  0  1  0  0
   -4.4699  -25.8387   44.9139 C   0  0  0  1  0  0
   -3.4211  -26.6202   45.2897 N   0  0  0  1  0  0
   -2.8235  -26.4169   46.4977 C   0  0  0  1  0  0
   -1.0581  -26.6563   51.5127 C   0  0  0  1  0  0
   -2.3771  -27.4565   51.6340 C   0  0  0  1  0  0
   -3.6267  -26.6439   51.8101 N   0  0  0  1  0  0
   -4.8648  -27.2666   52.0539 C   0  0  0  1  0  0
   -6.0710  -26.5194   52.0508 C   0  0  0  1  0  0
   -7.3041  -27.1168   52.3664 C   0  0  0  1  0  0
   -7.3753  -28.4864   52.6800 C   0  0  0  1  0  0
   -8.7004  -29.1302   53.0667 C   0  0  0  1  0  0
   -9.2952  -28.6410   54.4040 C   0  0  0  1  0  0
   -9.3252  -27.4521   54.6410 O   0  0  0  1  0  0
   -9.7797  -29.5117   55.3035 O   0  0  0  1  0  0
   -8.8978  -30.5872   52.6665 C   0  0  0  1  0  0
   -9.6770  -29.5044   51.9571 C   0  0  0  1  0  0
   -6.1984  -29.2555   52.6258 C   0  0  0  1  0  0
   -4.9637  -28.6565   52.3105 C   0  0  0  1  0  0
   -3.5538  -25.1496   51.7016 C   0  0  0  1  0  0
   -2.1515  -24.5334   51.4883 C   0  0  0  1  0  0
    2.6090  -25.9560   53.9783 H   0  0
    3.4790  -24.8325   52.9095 H   0  0
    2.7419  -26.3084   52.2371 H   0  0
    0.4688  -25.4002   52.8686 H   0  0
    2.0152  -22.9363   53.7110 H   0  0
    1.1452  -24.0598   54.7799 H   0  0
    0.2423  -23.0732   53.6030 H   0  0
    3.1799  -23.3438   51.4839 H   0  0
    3.2584  -22.4548   49.1757 H   0  0
    1.3616  -22.8821   47.6208 H   0  0
   -0.5752  -24.2147   48.3726 H   0  0
   -3.2826  -24.5283   49.2920 H   0  0
   -4.6603  -23.7509   47.6081 H   0  0
   -5.7241  -24.1286   45.3769 H   0  0
   -4.9726  -26.0395   43.9678 H   0  0
   -1.9788  -27.0445   46.7818 H   0  0
   -0.2909  -27.3110   51.0993 H   0  0
   -0.7291  -26.3749   52.5130 H   0  0
   -2.4911  -28.0739   50.7430 H   0  0
   -2.2914  -28.1421   52.4770 H   0  0
   -6.0411  -25.4595   51.7983 H   0  0
   -8.2122  -26.5139   52.3681 H   0  0
   -8.9793  -30.1671   55.4834 H   0  0
   -9.5160  -31.1200   53.3890 H   0  0
   -8.0687  -30.9501   52.0590 H   0  0
   -9.2630  -29.2907   50.9717 H   0  0
  -10.7098  -29.4595   52.3028 H   0  0
   -6.2428  -30.3253   52.8298 H   0  0
   -4.0667  -29.2740   52.2629 H   0  0
   -3.9844  -24.7186   52.6054 H   0  0
   -4.1962  -24.8345   50.8793 H   0  0
   -2.2730  -23.5589   51.0153 H   0  0
   -1.7065  -24.3456   52.4654 H   0  0
  1  2  1  0
  2  3  1  0
  2  4  1  0
  4  5  2  0
  4  9  1  0
  5  6  1  0
  6  7  2  0
  7  8  1  0
  8  9  2  0
  9 10  1  0
 10 11  1  0
 10 20  1  0
 10 36  1  0
 11 12  2  0
 11 13  1  0
 13 14  1  0
 14 15  2  0
 14 19  1  0
 15 16  1  0
 16 17  2  0
 17 18  1  0
 18 19  2  0
 20 21  1  0
 21 22  1  0
 22 23  1  0
 22 35  1  0
 23 24  2  0
 23 34  1  0
 24 25  1  0
 25 26  2  0
 26 27  1  0
 26 33  1  0
 27 28  1  0
 27 31  1  0
 27 32  1  0
 28 29  2  0
 28 30  1  0
 31 32  1  0
 33 34  2  0
 35 36  1  0
  1 37  1  0
  1 38  1  0
  1 39  1  0
  2 40  1  0
  3 41  1  0
  3 42  1  0
  3 43  1  0
  5 44  1  0
  6 45  1  0
  7 46  1  0
  8 47  1  0
 13 48  1  0
 15 49  1  0
 16 50  1  0
 17 51  1  0
 19 52  1  0
 20 53  1  0
 20 54  1  0
 21 55  1  0
 21 56  1  0
 24 57  1  0
 25 58  1  0
 30 59  1  0
 31 60  1  0
 31 61  1  0
 32 62  1  0
 32 63  1  0
 33 64  1  0
 34 65  1  0
 35 66  1  0
 35 67  1  0
 36 68  1  0
 36 69  1  0
M  END
> <Name>
Molecule

> <AbsoluteEnergy>
78.6775

> <Clean Energy>
200.984

> <ConfNumber>
92

> <MOL_NUMBER>
2

> <RelativeEnergy>
17.1743

> <POSE_NUMBER>
32

> <LibDockScore>
123.9141

> <HotSpots>
2.67,-22.92,49.98,A,39,6
-4.33,-26.12,45.19,A,10,17
-9.33,-29.92,51.19,A,52,31

$$$$
Molecule
  SciTegic05072616053D

 69 73  0  0  0  0            999 V2000
   -2.3284  -21.8531   47.6737 C   0  0  0  1  0  0
   -3.0003  -22.9893   48.4677 C   0  0  0  1  0  0
   -4.1768  -22.4538   49.3039 C   0  0  0  1  0  0
   -3.4244  -24.1409   47.5849 C   0  0  0  1  0  0
   -4.4711  -23.8926   46.6692 C   0  0  0  1  0  0
   -4.9103  -24.8781   45.7790 C   0  0  0  1  0  0
   -4.2845  -26.1249   45.7666 C   0  0  0  1  0  0
   -3.2552  -26.3984   46.6733 C   0  0  0  1  0  0
   -2.8352  -25.4462   47.6397 C   0  0  0  1  0  0
   -1.8176  -25.8396   48.7225 C   0  0  0  1  0  0
   -0.4442  -25.1675   48.5198 C   0  0  0  1  0  0
   -0.1232  -24.6966   47.4515 O   0  0  0  1  0  0
    0.4062  -25.1156   49.6144 N   0  0  0  1  0  0
    1.6942  -24.6111   49.7437 C   0  0  0  1  0  0
    2.4831  -24.1050   48.6797 C   0  0  0  1  0  0
    3.7726  -23.6110   48.9561 C   0  0  0  1  0  0
    4.2546  -23.6281   50.2802 C   0  0  0  1  0  0
    3.4982  -24.1201   51.3025 N   0  0  0  1  0  0
    2.2508  -24.5950   51.0481 C   0  0  0  1  0  0
   -1.5261  -27.3828   48.7617 C   0  0  0  1  0  0
   -2.6584  -28.2006   49.4174 C   0  0  0  1  0  0
   -2.7902  -27.8291   50.8497 N   0  0  0  1  0  0
   -3.3277  -28.6954   51.7865 C   0  0  0  1  0  0
   -4.3323  -29.6255   51.4381 C   0  0  0  1  0  0
   -4.9226  -30.4287   52.4246 C   0  0  0  1  0  0
   -4.5354  -30.2956   53.7709 C   0  0  0  1  0  0
   -5.3009  -31.0514   54.8320 C   0  0  0  1  0  0
   -6.5975  -30.3437   55.2636 C   0  0  0  1  0  0
   -7.5535  -31.0161   55.5791 O   0  0  0  1  0  0
   -6.6694  -29.0021   55.2853 O   0  0  0  1  0  0
   -4.5318  -31.8916   55.8423 C   0  0  0  1  0  0
   -5.3201  -32.5697   54.7482 C   0  0  0  1  0  0
   -3.4715  -29.4374   54.1106 C   0  0  0  1  0  0
   -2.8712  -28.6490   53.1212 C   0  0  0  1  0  0
   -2.3085  -26.4758   51.2506 C   0  0  0  1  0  0
   -2.4585  -25.4500   50.1104 C   0  0  0  1  0  0
   -1.9650  -21.1006   48.3736 H   0  0
   -3.0674  -21.3991   47.0136 H   0  0
   -1.4980  -22.2454   47.0867 H   0  0
   -2.2514  -23.3876   49.1522 H   0  0
   -4.9058  -21.9965   48.6349 H   0  0
   -3.8033  -21.6981   49.9949 H   0  0
   -4.6429  -23.2671   49.8602 H   0  0
   -4.9467  -22.9119   46.6561 H   0  0
   -5.7369  -24.6731   45.0988 H   0  0
   -4.5974  -26.8852   45.0510 H   0  0
   -2.7616  -27.3696   46.6372 H   0  0
    0.0015  -25.5354   50.5115 H   0  0
    2.0963  -24.0984   47.6607 H   0  0
    4.3937  -23.2180   48.1512 H   0  0
    5.2513  -23.2406   50.4912 H   0  0
    1.6558  -24.9778   51.8773 H   0  0
   -1.3768  -27.7409   47.7431 H   0  0
   -0.6018  -27.5556   49.3130 H   0  0
   -3.5975  -27.9961   48.9032 H   0  0
   -2.4306  -29.2637   49.3395 H   0  0
   -4.6496  -29.7191   50.3995 H   0  0
   -5.6836  -31.1583   52.1477 H   0  0
   -6.4083  -28.7120   54.3105 H   0  0
   -5.0500  -31.9388   56.8001 H   0  0
   -3.4629  -31.8934   55.6287 H   0  0
   -4.6713  -32.9348   53.9521 H   0  0
   -6.2585  -32.9787   55.1226 H   0  0
   -3.1167  -29.3871   55.1400 H   0  0
   -2.0422  -27.9922   53.3848 H   0  0
   -2.8796  -26.1353   52.1143 H   0  0
   -1.2587  -26.5400   51.5367 H   0  0
   -2.0230  -24.5063   50.4389 H   0  0
   -3.5209  -25.2586   49.9594 H   0  0
  1  2  1  0
  2  3  1  0
  2  4  1  0
  4  5  2  0
  4  9  1  0
  5  6  1  0
  6  7  2  0
  7  8  1  0
  8  9  2  0
  9 10  1  0
 10 11  1  0
 10 20  1  0
 10 36  1  0
 11 12  2  0
 11 13  1  0
 13 14  1  0
 14 15  2  0
 14 19  1  0
 15 16  1  0
 16 17  2  0
 17 18  1  0
 18 19  2  0
 20 21  1  0
 21 22  1  0
 22 23  1  0
 22 35  1  0
 23 24  2  0
 23 34  1  0
 24 25  1  0
 25 26  2  0
 26 27  1  0
 26 33  1  0
 27 28  1  0
 27 31  1  0
 27 32  1  0
 28 29  2  0
 28 30  1  0
 31 32  1  0
 33 34  2  0
 35 36  1  0
  1 37  1  0
  1 38  1  0
  1 39  1  0
  2 40  1  0
  3 41  1  0
  3 42  1  0
  3 43  1  0
  5 44  1  0
  6 45  1  0
  7 46  1  0
  8 47  1  0
 13 48  1  0
 15 49  1  0
 16 50  1  0
 17 51  1  0
 19 52  1  0
 20 53  1  0
 20 54  1  0
 21 55  1  0
 21 56  1  0
 24 57  1  0
 25 58  1  0
 30 59  1  0
 31 60  1  0
 31 61  1  0
 32 62  1  0
 32 63  1  0
 33 64  1  0
 34 65  1  0
 35 66  1  0
 35 67  1  0
 36 68  1  0
 36 69  1  0
M  END
> <Name>
Molecule

> <AbsoluteEnergy>
70.8777

> <Clean Energy>
200.984

> <ConfNumber>
36

> <MOL_NUMBER>
2

> <RelativeEnergy>
9.37457

> <POSE_NUMBER>
33

> <LibDockScore>
123.7896

> <HotSpots>
-4.53,-24.52,46.19,A,17,6
2.67,-23.92,48.98,A,32,15
-4.33,-32.92,55.19,A,75,31

$$$$
Molecule
  SciTegic05072616053D

 69 73  0  0  0  0            999 V2000
   -0.5956  -23.6565   48.0908 C   0  0  0  1  0  0
   -0.4427  -25.0226   48.7890 C   0  0  0  1  0  0
    0.0733  -26.0953   47.8120 C   0  0  0  1  0  0
    0.4157  -24.9248   50.0322 C   0  0  0  1  0  0
    1.7747  -24.5882   49.8411 C   0  0  0  1  0  0
    2.6471  -24.4470   50.9253 C   0  0  0  1  0  0
    2.1723  -24.6398   52.2249 C   0  0  0  1  0  0
    0.8286  -24.9828   52.4391 C   0  0  0  1  0  0
   -0.0832  -25.1441   51.3598 C   0  0  0  1  0  0
   -1.5540  -25.5310   51.6160 C   0  0  0  1  0  0
   -2.4677  -24.4179   51.0486 C   0  0  0  1  0  0
   -1.9841  -23.3266   50.8230 O   0  0  0  1  0  0
   -3.8140  -24.6524   50.7945 N   0  0  0  1  0  0
   -4.7998  -23.7201   50.4848 C   0  0  0  1  0  0
   -6.1538  -24.1143   50.5768 C   0  0  0  1  0  0
   -7.1724  -23.1971   50.2854 C   0  0  0  1  0  0
   -6.8267  -21.8913   49.8979 C   0  0  0  1  0  0
   -5.5237  -21.5045   49.7929 N   0  0  0  1  0  0
   -4.5248  -22.3915   50.0713 C   0  0  0  1  0  0
   -1.9136  -25.6295   53.1423 C   0  0  0  1  0  0
   -3.3116  -26.2225   53.4556 C   0  0  0  1  0  0
   -3.5537  -27.4880   52.7031 N   0  0  0  1  0  0
   -4.7932  -28.1167   52.6639 C   0  0  0  1  0  0
   -4.8942  -29.4943   52.3642 C   0  0  0  1  0  0
   -6.1541  -30.1039   52.2291 C   0  0  0  1  0  0
   -7.3342  -29.3510   52.3775 C   0  0  0  1  0  0
   -8.6793  -30.0023   52.1116 C   0  0  0  1  0  0
   -9.5851  -30.2139   53.3273 C   0  0  0  1  0  0
  -10.7135  -30.6167   53.1593 O   0  0  0  1  0  0
   -9.1220  -29.9871   54.5609 O   0  0  0  1  0  0
   -9.3586  -29.7173   50.7792 C   0  0  0  1  0  0
   -8.7409  -31.0688   51.0255 C   0  0  0  1  0  0
   -7.2368  -27.9912   52.7420 C   0  0  0  1  0  0
   -5.9776  -27.3879   52.8978 C   0  0  0  1  0  0
   -2.3907  -28.0267   51.9503 C   0  0  0  1  0  0
   -1.8143  -26.9595   50.9910 C   0  0  0  1  0  0
   -1.2968  -23.7634   47.2632 H   0  0
    0.3749  -23.3545   47.6972 H   0  0
   -0.9612  -22.9099   48.7958 H   0  0
   -1.4336  -25.3362   49.1174 H   0  0
    1.0391  -25.7759   47.4204 H   0  0
   -0.6327  -26.1848   46.9864 H   0  0
    0.1755  -27.0535   48.3214 H   0  0
    2.1504  -24.4356   48.8293 H   0  0
    3.6924  -24.1878   50.7570 H   0  0
    2.8464  -24.5237   53.0735 H   0  0
    0.4745  -25.1294   53.4595 H   0  0
   -4.1308  -25.6733   50.8429 H   0  0
   -6.4059  -25.1321   50.8745 H   0  0
   -8.2190  -23.4926   50.3583 H   0  0
   -7.6164  -21.1732   49.6768 H   0  0
   -3.4878  -22.0704   49.9733 H   0  0
   -1.8533  -24.6333   53.5806 H   0  0
   -1.1588  -26.2387   53.6396 H   0  0
   -3.3843  -26.4234   54.5245 H   0  0
   -4.0785  -25.4958   53.1874 H   0  0
   -3.9891  -30.0883   52.2369 H   0  0
   -6.2175  -31.1692   52.0074 H   0  0
   -8.7811  -28.9943   54.5350 H   0  0
   -8.7326  -29.0992   50.1356 H   0  0
  -10.4444  -29.7475   50.8704 H   0  0
   -9.4960  -31.8226   51.2483 H   0  0
   -7.7836  -31.1738   50.5150 H   0  0
   -8.1424  -27.4064   52.9034 H   0  0
   -5.9154  -26.3434   53.2033 H   0  0
   -2.7059  -28.8960   51.3732 H   0  0
   -1.6169  -28.3328   52.6544 H   0  0
   -0.8768  -27.3355   50.5814 H   0  0
   -2.4966  -26.8497   50.1481 H   0  0
  1  2  1  0
  2  3  1  0
  2  4  1  0
  4  5  2  0
  4  9  1  0
  5  6  1  0
  6  7  2  0
  7  8  1  0
  8  9  2  0
  9 10  1  0
 10 11  1  0
 10 20  1  0
 10 36  1  0
 11 12  2  0
 11 13  1  0
 13 14  1  0
 14 15  2  0
 14 19  1  0
 15 16  1  0
 16 17  2  0
 17 18  1  0
 18 19  2  0
 20 21  1  0
 21 22  1  0
 22 23  1  0
 22 35  1  0
 23 24  2  0
 23 34  1  0
 24 25  1  0
 25 26  2  0
 26 27  1  0
 26 33  1  0
 27 28  1  0
 27 31  1  0
 27 32  1  0
 28 29  2  0
 28 30  1  0
 31 32  1  0
 33 34  2  0
 35 36  1  0
  1 37  1  0
  1 38  1  0
  1 39  1  0
  2 40  1  0
  3 41  1  0
  3 42  1  0
  3 43  1  0
  5 44  1  0
  6 45  1  0
  7 46  1  0
  8 47  1  0
 13 48  1  0
 15 49  1  0
 16 50  1  0
 17 51  1  0
 19 52  1  0
 20 53  1  0
 20 54  1  0
 21 55  1  0
 21 56  1  0
 24 57  1  0
 25 58  1  0
 30 59  1  0
 31 60  1  0
 31 61  1  0
 32 62  1  0
 32 63  1  0
 33 64  1  0
 34 65  1  0
 35 66  1  0
 35 67  1  0
 36 68  1  0
 36 69  1  0
M  END
> <Name>
Molecule

> <AbsoluteEnergy>
67.8325

> <Clean Energy>
200.984

> <ConfNumber>
19

> <MOL_NUMBER>
2

> <RelativeEnergy>
6.32937

> <POSE_NUMBER>
34

> <LibDockScore>
123.5416

> <HotSpots>
2.67,-22.92,49.98,A,39,6
-4.73,-22.32,50.38,A,46,19
-7.13,-31.92,50.98,A,49,32

$$$$
Molecule
  SciTegic05072616053D

 69 73  0  0  0  0            999 V2000
    0.8713  -25.1603   46.4841 C   0  0  0  1  0  0
    0.1796  -24.3411   47.5916 C   0  0  0  1  0  0
   -0.2351  -22.9468   47.0863 C   0  0  0  1  0  0
    1.0001  -24.2536   48.8562 C   0  0  0  1  0  0
    2.3042  -23.7238   48.7174 C   0  0  0  1  0  0
    3.1700  -23.6200   49.8098 C   0  0  0  1  0  0
    2.7436  -24.0423   51.0688 C   0  0  0  1  0  0
    1.4505  -24.5552   51.2345 C   0  0  0  1  0  0
    0.5354  -24.6647   50.1514 C   0  0  0  1  0  0
   -0.8853  -25.2017   50.4104 C   0  0  0  1  0  0
   -1.9250  -24.3585   49.6528 C   0  0  0  1  0  0
   -1.9946  -23.1797   49.9210 O   0  0  0  1  0  0
   -2.7724  -24.9043   48.7002 N   0  0  0  1  0  0
   -3.4469  -24.2116   47.7066 C   0  0  0  1  0  0
   -3.3754  -22.8061   47.5816 C   0  0  0  1  0  0
   -4.0910  -22.1690   46.5540 C   0  0  0  1  0  0
   -4.8624  -22.9420   45.6666 C   0  0  0  1  0  0
   -4.9372  -24.2975   45.7873 N   0  0  0  1  0  0
   -4.2500  -24.9262   46.7854 C   0  0  0  1  0  0
   -0.9296  -26.7465   50.2167 C   0  0  0  1  0  0
   -2.2853  -27.4383   50.5021 C   0  0  0  1  0  0
   -3.1771  -26.7964   51.5278 N   0  0  0  1  0  0
   -4.4299  -27.3570   51.8264 C   0  0  0  1  0  0
   -4.6153  -28.7613   51.8683 C   0  0  0  1  0  0
   -5.8765  -29.3216   52.1299 C   0  0  0  1  0  0
   -6.9859  -28.4907   52.3586 C   0  0  0  1  0  0
   -8.3519  -29.0905   52.6010 C   0  0  0  1  0  0
   -8.9210  -29.7785   51.3660 C   0  0  0  1  0  0
   -9.5217  -29.1194   50.5471 O   0  0  0  1  0  0
   -8.7423  -31.0911   51.2142 O   0  0  0  1  0  0
   -9.3268  -28.3860   53.5332 C   0  0  0  1  0  0
   -8.6660  -29.6694   53.9732 C   0  0  0  1  0  0
   -6.8180  -27.0968   52.3516 C   0  0  0  1  0  0
   -5.5583  -26.5376   52.0874 C   0  0  0  1  0  0
   -2.7462  -25.5315   52.2034 C   0  0  0  1  0  0
   -1.3102  -25.0784   51.9045 C   0  0  0  1  0  0
    1.7544  -24.6163   46.1488 H   0  0
    0.1813  -25.2661   45.6470 H   0  0
    1.1571  -26.1426   46.8602 H   0  0
   -0.7285  -24.8837   47.8543 H   0  0
   -0.9163  -23.0702   46.2444 H   0  0
    0.6567  -22.4204   46.7463 H   0  0
   -0.7218  -22.3833   47.8823 H   0  0
    2.6416  -23.3889   47.7365 H   0  0
    4.1720  -23.2116   49.6786 H   0  0
    3.4163  -23.9733   51.9237 H   0  0
    1.1355  -24.8809   52.2259 H   0  0
   -2.9200  -25.9635   48.7356 H   0  0
   -2.7711  -22.2218   48.2755 H   0  0
   -4.0490  -21.0853   46.4451 H   0  0
   -5.4115  -22.4464   44.8660 H   0  0
   -4.3218  -26.0101   46.8757 H   0  0
   -0.6367  -26.9740   49.1917 H   0  0
   -0.1722  -27.1973   50.8581 H   0  0
   -2.0897  -28.4639   50.8150 H   0  0
   -2.8388  -27.5091   49.5658 H   0  0
   -3.7635  -29.4188   51.6943 H   0  0
   -5.9948  -30.4049   52.1555 H   0  0
   -9.1443  -31.5231   52.0827 H   0  0
  -10.3605  -28.5495   53.2286 H   0  0
   -8.8703  -27.5158   54.0049 H   0  0
   -7.8573  -29.4839   54.6801 H   0  0
   -9.3469  -30.5176   53.9024 H   0  0
   -7.6694  -26.4464   52.5522 H   0  0
   -5.4447  -25.4535   52.0826 H   0  0
   -2.8524  -25.6596   53.2806 H   0  0
   -3.4295  -24.7335   51.9128 H   0  0
   -1.2009  -24.0395   52.2158 H   0  0
   -0.6249  -25.6684   52.5130 H   0  0
  1  2  1  0
  2  3  1  0
  2  4  1  0
  4  5  2  0
  4  9  1  0
  5  6  1  0
  6  7  2  0
  7  8  1  0
  8  9  2  0
  9 10  1  0
 10 11  1  0
 10 20  1  0
 10 36  1  0
 11 12  2  0
 11 13  1  0
 13 14  1  0
 14 15  2  0
 14 19  1  0
 15 16  1  0
 16 17  2  0
 17 18  1  0
 18 19  2  0
 20 21  1  0
 21 22  1  0
 22 23  1  0
 22 35  1  0
 23 24  2  0
 23 34  1  0
 24 25  1  0
 25 26  2  0
 26 27  1  0
 26 33  1  0
 27 28  1  0
 27 31  1  0
 27 32  1  0
 28 29  2  0
 28 30  1  0
 31 32  1  0
 33 34  2  0
 35 36  1  0
  1 37  1  0
  1 38  1  0
  1 39  1  0
  2 40  1  0
  3 41  1  0
  3 42  1  0
  3 43  1  0
  5 44  1  0
  6 45  1  0
  7 46  1  0
  8 47  1  0
 13 48  1  0
 15 49  1  0
 16 50  1  0
 17 51  1  0
 19 52  1  0
 20 53  1  0
 20 54  1  0
 21 55  1  0
 21 56  1  0
 24 57  1  0
 25 58  1  0
 30 59  1  0
 31 60  1  0
 31 61  1  0
 32 62  1  0
 32 63  1  0
 33 64  1  0
 34 65  1  0
 35 66  1  0
 35 67  1  0
 36 68  1  0
 36 69  1  0
M  END
> <Name>
Molecule

> <AbsoluteEnergy>
66.8992

> <Clean Energy>
200.984

> <ConfNumber>
16

> <MOL_NUMBER>
2

> <RelativeEnergy>
5.39599

> <POSE_NUMBER>
35

> <LibDockScore>
123.1403

> <HotSpots>
1.87,-25.32,48.38,A,30,1
0.87,-24.32,52.78,A,63,8
-9.53,-30.12,52.78,A,62,31

$$$$
Molecule
  SciTegic05072616053D

 69 73  0  0  0  0            999 V2000
   -0.7540  -23.4054   48.5179 C   0  0  0  1  0  0
   -0.5725  -24.8258   49.0895 C   0  0  0  1  0  0
   -0.0620  -25.8009   48.0124 C   0  0  0  1  0  0
    0.3072  -24.8272   50.3215 C   0  0  0  1  0  0
    1.6539  -24.4393   50.1410 C   0  0  0  1  0  0
    2.5436  -24.3817   51.2189 C   0  0  0  1  0  0
    2.0987  -24.7115   52.5015 C   0  0  0  1  0  0
    0.7678  -25.1075   52.7041 C   0  0  0  1  0  0
   -0.1607  -25.1866   51.6297 C   0  0  0  1  0  0
   -1.6167  -25.6335   51.8720 C   0  0  0  1  0  0
   -2.5632  -24.4625   51.5136 C   0  0  0  1  0  0
   -2.0879  -23.3544   51.3654 O   0  0  0  1  0  0
   -3.9297  -24.6639   51.3578 N   0  0  0  1  0  0
   -4.8685  -23.7818   50.8313 C   0  0  0  1  0  0
   -6.2238  -24.1808   50.7964 C   0  0  0  1  0  0
   -7.1975  -23.3120   50.2855 C   0  0  0  1  0  0
   -6.8052  -22.0503   49.8072 C   0  0  0  1  0  0
   -5.4990  -21.6606   49.8237 N   0  0  0  1  0  0
   -4.5432  -22.5008   50.3163 C   0  0  0  1  0  0
   -1.9207  -25.9716   53.3759 C   0  0  0  1  0  0
   -3.2995  -26.6297   53.6403 C   0  0  0  1  0  0
   -3.5530  -27.7686   52.7103 N   0  0  0  1  0  0
   -4.7855  -28.4051   52.6159 C   0  0  0  1  0  0
   -4.9194  -29.6152   51.8979 C   0  0  0  1  0  0
   -6.1844  -30.2037   51.7222 C   0  0  0  1  0  0
   -7.3386  -29.5918   52.2468 C   0  0  0  1  0  0
   -8.7044  -30.1813   51.9448 C   0  0  0  1  0  0
   -9.6764  -30.2848   53.1229 C   0  0  0  1  0  0
  -10.7239  -29.6813   53.0782 O   0  0  0  1  0  0
   -9.3836  -31.0595   54.1725 O   0  0  0  1  0  0
   -9.3038  -29.9240   50.5692 C   0  0  0  1  0  0
   -8.7755  -31.2937   50.9065 C   0  0  0  1  0  0
   -7.2000  -28.4196   53.0201 C   0  0  0  1  0  0
   -5.9331  -27.8438   53.2133 C   0  0  0  1  0  0
   -2.4112  -28.1651   51.8452 C   0  0  0  1  0  0
   -1.8820  -26.9534   51.0433 C   0  0  0  1  0  0
   -1.4690  -23.4479   47.6963 H   0  0
    0.2056  -23.0569   48.1360 H   0  0
   -1.1153  -22.7290   49.2925 H   0  0
   -1.5535  -25.1802   49.4059 H   0  0
    0.8927  -25.4354   47.6341 H   0  0
   -0.7819  -25.8264   47.1943 H   0  0
    0.0606  -26.7990   48.4329 H   0  0
    2.0062  -24.1800   49.1426 H   0  0
    3.5790  -24.0810   51.0589 H   0  0
    2.7862  -24.6612   53.3458 H   0  0
    0.4370  -25.3611   53.7112 H   0  0
   -4.3052  -25.6120   51.6819 H   0  0
   -6.5119  -25.1646   51.1670 H   0  0
   -8.2454  -23.6110   50.2595 H   0  0
   -7.5606  -21.3694   49.4150 H   0  0
   -3.5018  -22.1789   50.3140 H   0  0
   -1.8567  -25.0537   53.9603 H   0  0
   -1.1415  -26.6369   53.7479 H   0  0
   -3.3319  -26.9936   54.6673 H   0  0
   -4.0840  -25.8838   53.5129 H   0  0
   -4.0359  -30.0956   51.4774 H   0  0
   -6.2721  -31.1422   51.1748 H   0  0
   -8.4513  -30.7095   54.5053 H   0  0
   -8.6146  -29.3724   49.9298 H   0  0
  -10.3926  -29.8909   50.6082 H   0  0
   -9.5815  -31.9939   51.1259 H   0  0
   -7.8029  -31.4748   50.4488 H   0  0
   -8.0797  -27.9589   53.4695 H   0  0
   -5.8360  -26.9521   53.8326 H   0  0
   -2.7363  -28.9407   51.1518 H   0  0
   -1.6093  -28.5624   52.4675 H   0  0
   -0.9552  -27.2458   50.5496 H   0  0
   -2.5951  -26.7273   50.2505 H   0  0
  1  2  1  0
  2  3  1  0
  2  4  1  0
  4  5  2  0
  4  9  1  0
  5  6  1  0
  6  7  2  0
  7  8  1  0
  8  9  2  0
  9 10  1  0
 10 11  1  0
 10 20  1  0
 10 36  1  0
 11 12  2  0
 11 13  1  0
 13 14  1  0
 14 15  2  0
 14 19  1  0
 15 16  1  0
 16 17  2  0
 17 18  1  0
 18 19  2  0
 20 21  1  0
 21 22  1  0
 22 23  1  0
 22 35  1  0
 23 24  2  0
 23 34  1  0
 24 25  1  0
 25 26  2  0
 26 27  1  0
 26 33  1  0
 27 28  1  0
 27 31  1  0
 27 32  1  0
 28 29  2  0
 28 30  1  0
 31 32  1  0
 33 34  2  0
 35 36  1  0
  1 37  1  0
  1 38  1  0
  1 39  1  0
  2 40  1  0
  3 41  1  0
  3 42  1  0
  3 43  1  0
  5 44  1  0
  6 45  1  0
  7 46  1  0
  8 47  1  0
 13 48  1  0
 15 49  1  0
 16 50  1  0
 17 51  1  0
 19 52  1  0
 20 53  1  0
 20 54  1  0
 21 55  1  0
 21 56  1  0
 24 57  1  0
 25 58  1  0
 30 59  1  0
 31 60  1  0
 31 61  1  0
 32 62  1  0
 32 63  1  0
 33 64  1  0
 34 65  1  0
 35 66  1  0
 35 67  1  0
 36 68  1  0
 36 69  1  0
M  END
> <Name>
Molecule

> <AbsoluteEnergy>
67.8325

> <Clean Energy>
200.984

> <ConfNumber>
19

> <MOL_NUMBER>
2

> <RelativeEnergy>
6.32937

> <POSE_NUMBER>
36

> <LibDockScore>
122.7894

> <HotSpots>
2.27,-24.92,52.19,A,58,7
-7.33,-24.12,50.38,A,44,16
-8.53,-31.32,51.19,A,51,31

$$$$
Molecule
  SciTegic05072616053D

 69 73  0  0  0  0            999 V2000
   -3.7289  -21.8013   50.8145 C   0  0  0  1  0  0
   -4.4249  -23.1598   50.6110 C   0  0  0  1  0  0
   -5.9364  -23.0666   50.8944 C   0  0  0  1  0  0
   -4.1312  -23.7361   49.2414 C   0  0  0  1  0  0
   -4.6161  -23.0077   48.1342 C   0  0  0  1  0  0
   -4.3868  -23.4394   46.8234 C   0  0  0  1  0  0
   -3.6573  -24.6079   46.5977 C   0  0  0  1  0  0
   -3.1681  -25.3475   47.6807 C   0  0  0  1  0  0
   -3.4017  -24.9507   49.0199 C   0  0  0  1  0  0
   -2.8802  -25.8182   50.1701 C   0  0  0  1  0  0
   -1.6169  -25.2196   50.8150 C   0  0  0  1  0  0
   -1.5696  -25.1273   52.0209 O   0  0  0  1  0  0
   -0.5575  -24.7953   50.0216 N   0  0  0  1  0  0
    0.7716  -24.6125   50.3987 C   0  0  0  1  0  0
    1.6635  -24.0218   49.4729 C   0  0  0  1  0  0
    3.0070  -23.8213   49.8307 C   0  0  0  1  0  0
    3.4482  -24.2148   51.1065 C   0  0  0  1  0  0
    2.5976  -24.7904   52.0009 N   0  0  0  1  0  0
    1.2904  -24.9927   51.6636 C   0  0  0  1  0  0
   -4.0418  -25.9694   51.2237 C   0  0  0  1  0  0
   -5.1052  -27.0157   50.8470 C   0  0  0  1  0  0
   -4.3843  -28.2956   50.7115 N   0  0  0  1  0  0
   -4.4071  -29.2640   51.7020 C   0  0  0  1  0  0
   -3.2009  -29.8782   52.0985 C   0  0  0  1  0  0
   -3.1578  -30.6655   53.2546 C   0  0  0  1  0  0
   -4.3217  -30.8441   54.0201 C   0  0  0  1  0  0
   -4.2117  -31.4609   55.3876 C   0  0  0  1  0  0
   -3.6623  -30.4423   56.3921 C   0  0  0  1  0  0
   -2.6338  -29.8501   56.1366 O   0  0  0  1  0  0
   -4.3254  -30.2163   57.5214 O   0  0  0  1  0  0
   -3.8048  -32.9185   55.5229 C   0  0  0  1  0  0
   -5.2243  -32.5053   55.8305 C   0  0  0  1  0  0
   -5.5614  -30.3981   53.5306 C   0  0  0  1  0  0
   -5.6057  -29.6132   52.3686 C   0  0  0  1  0  0
   -3.4961  -28.3323   49.5338 C   0  0  0  1  0  0
   -2.3952  -27.2615   49.7361 C   0  0  0  1  0  0
   -3.8878  -21.4792   51.8436 H   0  0
   -4.1820  -21.0735   50.1413 H   0  0
   -2.6617  -21.8868   50.6097 H   0  0
   -4.0097  -23.8562   51.3395 H   0  0
   -6.3723  -22.3289   50.2206 H   0  0
   -6.0781  -22.7346   51.9229 H   0  0
   -6.4113  -24.0363   50.7453 H   0  0
   -5.1804  -22.0907   48.3037 H   0  0
   -4.7760  -22.8659   45.9821 H   0  0
   -3.4686  -24.9443   45.5782 H   0  0
   -2.5922  -26.2527   47.4882 H   0  0
   -0.7903  -24.5837   48.9989 H   0  0
    1.3096  -23.7235   48.4860 H   0  0
    3.7015  -23.3647   49.1255 H   0  0
    4.4901  -24.0562   51.3847 H   0  0
    0.6244  -25.4608   52.3884 H   0  0
   -4.5311  -25.0036   51.3498 H   0  0
   -3.6096  -26.2412   52.1867 H   0  0
   -5.5699  -26.7487   49.8979 H   0  0
   -5.8494  -27.0903   51.6399 H   0  0
   -2.2991  -29.7391   51.5023 H   0  0
   -2.2244  -31.1384   53.5599 H   0  0
   -4.4123  -31.1586   57.9764 H   0  0
   -3.2302  -33.0911   56.4329 H   0  0
   -3.7292  -33.4045   54.5502 H   0  0
   -5.9047  -32.7713   55.0216 H   0  0
   -5.4052  -32.4563   56.9043 H   0  0
   -6.4828  -30.6604   54.0506 H   0  0
   -6.5646  -29.2718   51.9787 H   0  0
   -3.0377  -29.3176   49.4494 H   0  0
   -4.0674  -28.1046   48.6338 H   0  0
   -1.8306  -27.1710   48.8081 H   0  0
   -1.6927  -27.6297   50.4838 H   0  0
  1  2  1  0
  2  3  1  0
  2  4  1  0
  4  5  2  0
  4  9  1  0
  5  6  1  0
  6  7  2  0
  7  8  1  0
  8  9  2  0
  9 10  1  0
 10 11  1  0
 10 20  1  0
 10 36  1  0
 11 12  2  0
 11 13  1  0
 13 14  1  0
 14 15  2  0
 14 19  1  0
 15 16  1  0
 16 17  2  0
 17 18  1  0
 18 19  2  0
 20 21  1  0
 21 22  1  0
 22 23  1  0
 22 35  1  0
 23 24  2  0
 23 34  1  0
 24 25  1  0
 25 26  2  0
 26 27  1  0
 26 33  1  0
 27 28  1  0
 27 31  1  0
 27 32  1  0
 28 29  2  0
 28 30  1  0
 31 32  1  0
 33 34  2  0
 35 36  1  0
  1 37  1  0
  1 38  1  0
  1 39  1  0
  2 40  1  0
  3 41  1  0
  3 42  1  0
  3 43  1  0
  5 44  1  0
  6 45  1  0
  7 46  1  0
  8 47  1  0
 13 48  1  0
 15 49  1  0
 16 50  1  0
 17 51  1  0
 19 52  1  0
 20 53  1  0
 20 54  1  0
 21 55  1  0
 21 56  1  0
 24 57  1  0
 25 58  1  0
 30 59  1  0
 31 60  1  0
 31 61  1  0
 32 62  1  0
 32 63  1  0
 33 64  1  0
 34 65  1  0
 35 66  1  0
 35 67  1  0
 36 68  1  0
 36 69  1  0
M  END
> <Name>
Molecule

> <AbsoluteEnergy>
71.5006

> <Clean Energy>
200.984

> <ConfNumber>
40

> <MOL_NUMBER>
2

> <RelativeEnergy>
9.9974

> <POSE_NUMBER>
37

> <LibDockScore>
122.7706

> <HotSpots>
-4.73,-22.32,50.38,A,46,3
2.67,-23.92,48.98,A,32,16
-4.13,-30.52,57.38,P,71,30

$$$$
Molecule
  SciTegic05072616053D

 69 73  0  0  0  0            999 V2000
   -5.6193  -25.1970   50.3657 C   0  0  0  1  0  0
   -5.1011  -23.7635   50.0867 C   0  0  0  1  0  0
   -4.5980  -22.9601   51.3091 C   0  0  0  1  0  0
   -4.2866  -23.5329   48.8154 C   0  0  0  1  0  0
   -4.8351  -22.5418   47.9643 C   0  0  0  1  0  0
   -4.2656  -22.2167   46.7309 C   0  0  0  1  0  0
   -3.1197  -22.8840   46.3052 C   0  0  0  1  0  0
   -2.5408  -23.8598   47.1250 C   0  0  0  1  0  0
   -3.0671  -24.1953   48.4071 C   0  0  0  1  0  0
   -2.2868  -25.2489   49.2177 C   0  0  0  1  0  0
   -0.7577  -25.1935   49.0033 C   0  0  0  1  0  0
   -0.1627  -26.2174   48.7446 O   0  0  0  1  0  0
   -0.0550  -23.9971   49.1217 N   0  0  0  1  0  0
    1.2785  -23.8939   49.4898 C   0  0  0  1  0  0
    1.9694  -24.9956   50.0467 C   0  0  0  1  0  0
    3.3128  -24.8492   50.4227 C   0  0  0  1  0  0
    3.9472  -23.6047   50.2470 C   0  0  0  1  0  0
    3.2846  -22.5380   49.7146 N   0  0  0  1  0  0
    1.9756  -22.6684   49.3434 C   0  0  0  1  0  0
   -2.7872  -26.6726   48.7913 C   0  0  0  1  0  0
   -2.3287  -27.8630   49.6766 C   0  0  0  1  0  0
   -2.3923  -27.5457   51.1316 N   0  0  0  1  0  0
   -3.0253  -28.3668   52.0639 C   0  0  0  1  0  0
   -2.9012  -28.0916   53.4439 C   0  0  0  1  0  0
   -3.4848  -28.9330   54.4020 C   0  0  0  1  0  0
   -4.2264  -30.0596   54.0005 C   0  0  0  1  0  0
   -4.8287  -30.9845   55.0386 C   0  0  0  1  0  0
   -3.9572  -31.2072   56.2854 C   0  0  0  1  0  0
   -4.2855  -32.0539   57.0872 O   0  0  0  1  0  0
   -2.8534  -30.4794   56.4977 O   0  0  0  1  0  0
   -5.6789  -32.1428   54.5332 C   0  0  0  1  0  0
   -6.3394  -30.9776   55.2298 C   0  0  0  1  0  0
   -4.3952  -30.3240   52.6288 C   0  0  0  1  0  0
   -3.7964  -29.4879   51.6676 C   0  0  0  1  0  0
   -1.7293  -26.2682   51.5204 C   0  0  0  1  0  0
   -2.3813  -25.0970   50.7694 C   0  0  0  1  0  0
   -6.4219  -25.0957   51.0962 H   0  0
   -4.7993  -25.7310   50.8459 H   0  0
   -5.9575  -25.7052   49.4627 H   0  0
   -6.0551  -23.2999   49.8356 H   0  0
   -3.8067  -23.5567   51.7629 H   0  0
   -5.4292  -22.9215   52.0132 H   0  0
   -4.2486  -21.9627   51.0423 H   0  0
   -5.7338  -22.0140   48.2835 H   0  0
   -4.7153  -21.4455   46.1055 H   0  0
   -2.6757  -22.6475   45.3382 H   0  0
   -1.6534  -24.3835   46.7696 H   0  0
   -0.5829  -23.0900   48.9133 H   0  0
    1.4619  -25.9506   50.1825 H   0  0
    3.8603  -25.6909   50.8468 H   0  0
    4.9902  -23.4912   50.5428 H   0  0
    1.4544  -21.8079   48.9240 H   0  0
   -2.4624  -26.8610   47.7680 H   0  0
   -3.8769  -26.6622   48.7676 H   0  0
   -1.3041  -28.1284   49.4161 H   0  0
   -2.9650  -28.7244   49.4733 H   0  0
   -2.3440  -27.2129   53.7686 H   0  0
   -3.3634  -28.7134   55.4627 H   0  0
   -3.1929  -29.4862   56.4682 H   0  0
   -5.6009  -33.0111   55.1874 H   0  0
   -5.8155  -32.0959   53.4528 H   0  0
   -6.8291  -30.3100   54.5209 H   0  0
   -6.6131  -31.2244   56.2556 H   0  0
   -4.9914  -31.1788   52.3096 H   0  0
   -3.9272  -29.7050   50.6075 H   0  0
   -1.8376  -26.1153   52.5942 H   0  0
   -0.6702  -26.3161   51.2670 H   0  0
   -1.8919  -24.1694   51.0662 H   0  0
   -3.4304  -25.0315   51.0579 H   0  0
  1  2  1  0
  2  3  1  0
  2  4  1  0
  4  5  2  0
  4  9  1  0
  5  6  1  0
  6  7  2  0
  7  8  1  0
  8  9  2  0
  9 10  1  0
 10 11  1  0
 10 20  1  0
 10 36  1  0
 11 12  2  0
 11 13  1  0
 13 14  1  0
 14 15  2  0
 14 19  1  0
 15 16  1  0
 16 17  2  0
 17 18  1  0
 18 19  2  0
 20 21  1  0
 21 22  1  0
 22 23  1  0
 22 35  1  0
 23 24  2  0
 23 34  1  0
 24 25  1  0
 25 26  2  0
 26 27  1  0
 26 33  1  0
 27 28  1  0
 27 31  1  0
 27 32  1  0
 28 29  2  0
 28 30  1  0
 31 32  1  0
 33 34  2  0
 35 36  1  0
  1 37  1  0
  1 38  1  0
  1 39  1  0
  2 40  1  0
  3 41  1  0
  3 42  1  0
  3 43  1  0
  5 44  1  0
  6 45  1  0
  7 46  1  0
  8 47  1  0
 13 48  1  0
 15 49  1  0
 16 50  1  0
 17 51  1  0
 19 52  1  0
 20 53  1  0
 20 54  1  0
 21 55  1  0
 21 56  1  0
 24 57  1  0
 25 58  1  0
 30 59  1  0
 31 60  1  0
 31 61  1  0
 32 62  1  0
 32 63  1  0
 33 64  1  0
 34 65  1  0
 35 66  1  0
 35 67  1  0
 36 68  1  0
 36 69  1  0
M  END
> <Name>
Molecule

> <AbsoluteEnergy>
79.8317

> <Clean Energy>
200.984

> <ConfNumber>
100

> <MOL_NUMBER>
2

> <RelativeEnergy>
18.3285

> <POSE_NUMBER>
38

> <LibDockScore>
122.6385

> <HotSpots>
-5.13,-23.32,51.38,A,54,3
4.07,-23.72,49.78,A,37,17
-4.33,-31.92,57.78,P,73,29

$$$$
Molecule
  SciTegic05072616053D

 69 73  0  0  0  0            999 V2000
   -0.1086  -23.9031   45.8466 C   0  0  0  1  0  0
    0.3576  -25.1002   46.6984 C   0  0  0  1  0  0
    1.5549  -25.8216   46.0497 C   0  0  0  1  0  0
    0.6488  -24.6934   48.1265 C   0  0  0  1  0  0
    1.9559  -24.2241   48.3935 C   0  0  0  1  0  0
    2.3194  -23.7646   49.6640 C   0  0  0  1  0  0
    1.3740  -23.7575   50.6925 C   0  0  0  1  0  0
    0.0782  -24.2330   50.4523 C   0  0  0  1  0  0
   -0.3120  -24.7484   49.1893 C   0  0  0  1  0  0
   -1.7285  -25.3205   49.0038 C   0  0  0  1  0  0
   -2.3899  -24.7379   47.7443 C   0  0  0  1  0  0
   -2.8108  -25.4936   46.8985 O   0  0  0  1  0  0
   -2.4866  -23.3615   47.5850 N   0  0  0  1  0  0
   -3.3005  -22.6642   46.6977 C   0  0  0  1  0  0
   -4.5454  -23.1489   46.2293 C   0  0  0  1  0  0
   -5.2859  -22.3817   45.3148 C   0  0  0  1  0  0
   -4.7836  -21.1379   44.8886 C   0  0  0  1  0  0
   -3.5947  -20.6572   45.3502 N   0  0  0  1  0  0
   -2.8682  -21.3953   46.2357 C   0  0  0  1  0  0
   -1.7001  -26.8832   48.9419 C   0  0  0  1  0  0
   -1.3115  -27.5456   50.2679 C   0  0  0  1  0  0
   -2.2878  -27.1880   51.3312 N   0  0  0  1  0  0
   -2.9491  -28.1419   52.1014 C   0  0  0  1  0  0
   -3.4307  -27.8179   53.3898 C   0  0  0  1  0  0
   -4.0896  -28.7810   54.1733 C   0  0  0  1  0  0
   -4.2779  -30.0833   53.6839 C   0  0  0  1  0  0
   -4.9777  -31.1189   54.5291 C   0  0  0  1  0  0
   -4.0145  -32.1102   55.1609 C   0  0  0  1  0  0
   -3.7852  -33.1531   54.5922 O   0  0  0  1  0  0
   -3.4474  -31.8067   56.3287 O   0  0  0  1  0  0
   -6.3494  -31.6196   54.1014 C   0  0  0  1  0  0
   -6.2240  -30.7272   55.3134 C   0  0  0  1  0  0
   -3.8085  -30.4169   52.4020 C   0  0  0  1  0  0
   -3.1524  -29.4546   51.6157 C   0  0  0  1  0  0
   -2.5036  -25.7279   51.5178 C   0  0  0  1  0  0
   -2.7293  -24.9955   50.1696 C   0  0  0  1  0  0
   -0.3936  -24.2679   44.8598 H   0  0
    0.7230  -23.2065   45.7403 H   0  0
   -0.9549  -23.4061   46.3208 H   0  0
   -0.4661  -25.8132   46.7352 H   0  0
    2.3734  -25.1099   45.9419 H   0  0
    1.2568  -26.1713   45.0613 H   0  0
    1.8700  -26.6640   46.6655 H   0  0
    2.6955  -24.2203   47.5928 H   0  0
    3.3346  -23.4141   49.8503 H   0  0
    1.6439  -23.3828   51.6798 H   0  0
   -0.6526  -24.2062   51.2606 H   0  0
   -1.8619  -22.7677   48.2191 H   0  0
   -4.9263  -24.1097   46.5755 H   0  0
   -6.2415  -22.7466   44.9384 H   0  0
   -5.3572  -20.5469   44.1746 H   0  0
   -1.9220  -20.9965   46.6015 H   0  0
   -0.9923  -27.1940   48.1735 H   0  0
   -2.6855  -27.2425   48.6452 H   0  0
   -0.3178  -27.2091   50.5634 H   0  0
   -1.2976  -28.6281   50.1406 H   0  0
   -3.2897  -26.8101   53.7803 H   0  0
   -4.4559  -28.5157   55.1650 H   0  0
   -4.2485  -31.6197   56.9812 H   0  0
   -6.5007  -32.6616   54.3831 H   0  0
   -6.7224  -31.0723   53.2357 H   0  0
   -6.5297  -29.7044   55.0932 H   0  0
   -6.3063  -31.2940   56.2408 H   0  0
   -3.9539  -31.4259   52.0162 H   0  0
   -2.7964  -29.7227   50.6210 H   0  0
   -3.3734  -25.5751   52.1567 H   0  0
   -1.6338  -25.2989   52.0152 H   0  0
   -2.7027  -23.9218   50.3555 H   0  0
   -3.7403  -25.2155   49.8267 H   0  0
  1  2  1  0
  2  3  1  0
  2  4  1  0
  4  5  2  0
  4  9  1  0
  5  6  1  0
  6  7  2  0
  7  8  1  0
  8  9  2  0
  9 10  1  0
 10 11  1  0
 10 20  1  0
 10 36  1  0
 11 12  2  0
 11 13  1  0
 13 14  1  0
 14 15  2  0
 14 19  1  0
 15 16  1  0
 16 17  2  0
 17 18  1  0
 18 19  2  0
 20 21  1  0
 21 22  1  0
 22 23  1  0
 22 35  1  0
 23 24  2  0
 23 34  1  0
 24 25  1  0
 25 26  2  0
 26 27  1  0
 26 33  1  0
 27 28  1  0
 27 31  1  0
 27 32  1  0
 28 29  2  0
 28 30  1  0
 31 32  1  0
 33 34  2  0
 35 36  1  0
  1 37  1  0
  1 38  1  0
  1 39  1  0
  2 40  1  0
  3 41  1  0
  3 42  1  0
  3 43  1  0
  5 44  1  0
  6 45  1  0
  7 46  1  0
  8 47  1  0
 13 48  1  0
 15 49  1  0
 16 50  1  0
 17 51  1  0
 19 52  1  0
 20 53  1  0
 20 54  1  0
 21 55  1  0
 21 56  1  0
 24 57  1  0
 25 58  1  0
 30 59  1  0
 31 60  1  0
 31 61  1  0
 32 62  1  0
 32 63  1  0
 33 64  1  0
 34 65  1  0
 35 66  1  0
 35 67  1  0
 36 68  1  0
 36 69  1  0
M  END
> <Name>
Molecule

> <AbsoluteEnergy>
61.5032

> <Clean Energy>
200.984

> <ConfNumber>
1

> <MOL_NUMBER>
2

> <RelativeEnergy>
0

> <POSE_NUMBER>
39

> <LibDockScore>
121.5947

> <HotSpots>
0.27,-24.92,46.38,A,19,1
1.67,-24.32,50.98,A,50,7
-3.53,-20.52,45.19,A,12,17

$$$$
Molecule
  SciTegic05072616053D

 69 73  0  0  0  0            999 V2000
   -6.1844  -23.0058   50.8150 C   0  0  0  1  0  0
   -5.2768  -24.2385   50.6017 C   0  0  0  1  0  0
   -6.0590  -25.5056   51.0125 C   0  0  0  1  0  0
   -4.6732  -24.3816   49.2158 C   0  0  0  1  0  0
   -5.2535  -23.5868   48.1972 C   0  0  0  1  0  0
   -4.7635  -23.5861   46.8882 C   0  0  0  1  0  0
   -3.6865  -24.4037   46.5547 C   0  0  0  1  0  0
   -3.1168  -25.2323   47.5279 C   0  0  0  1  0  0
   -3.5820  -25.2624   48.8720 C   0  0  0  1  0  0
   -2.8652  -26.2806   49.7827 C   0  0  0  1  0  0
   -1.3349  -26.1749   49.6447 C   0  0  0  1  0  0
   -0.7226  -27.0607   49.0900 O   0  0  0  1  0  0
   -0.6710  -25.0810   50.1808 N   0  0  0  1  0  0
    0.6387  -24.7051   49.9297 C   0  0  0  1  0  0
    1.3157  -25.0115   48.7262 C   0  0  0  1  0  0
    2.6562  -24.6194   48.5765 C   0  0  0  1  0  0
    3.2929  -23.9240   49.6211 C   0  0  0  1  0  0
    2.6355  -23.6123   50.7740 N   0  0  0  1  0  0
    1.3360  -23.9874   50.9293 C   0  0  0  1  0  0
   -3.3269  -27.7129   49.3116 C   0  0  0  1  0  0
   -2.8893  -28.8910   50.2188 C   0  0  0  1  0  0
   -3.2271  -28.5399   51.6160 N   0  0  0  1  0  0
   -4.2776  -29.0876   52.3376 C   0  0  0  1  0  0
   -4.2826  -29.0499   53.7495 C   0  0  0  1  0  0
   -5.4488  -29.3658   54.4625 C   0  0  0  1  0  0
   -6.6126  -29.7339   53.7673 C   0  0  0  1  0  0
   -7.9201  -29.8453   54.5014 C   0  0  0  1  0  0
   -8.3026  -28.4838   55.0663 C   0  0  0  1  0  0
   -8.9926  -27.7409   54.4097 O   0  0  0  1  0  0
   -7.8474  -28.1226   56.2664 O   0  0  0  1  0  0
   -9.0038  -30.7933   54.0209 C   0  0  0  1  0  0
   -8.2516  -31.0973   55.2935 C   0  0  0  1  0  0
   -6.5600  -29.9502   52.3805 C   0  0  0  1  0  0
   -5.3950  -29.6338   51.6672 C   0  0  0  1  0  0
   -2.4836  -27.3568   52.1046 C   0  0  0  1  0  0
   -3.0964  -26.1734   51.3344 C   0  0  0  1  0  0
   -6.4679  -22.9313   51.8648 H   0  0
   -7.0797  -23.0936   50.1995 H   0  0
   -5.6397  -22.1065   50.5273 H   0  0
   -4.4048  -24.0920   51.2391 H   0  0
   -6.9537  -25.6046   50.3979 H   0  0
   -6.3420  -25.4423   52.0632 H   0  0
   -5.4257  -26.3804   50.8651 H   0  0
   -6.1084  -22.9563   48.4416 H   0  0
   -5.2220  -22.9488   46.1321 H   0  0
   -3.2890  -24.3982   45.5398 H   0  0
   -2.2858  -25.8787   47.2456 H   0  0
   -1.2268  -24.4652   50.8567 H   0  0
    0.8038  -25.5450   47.9253 H   0  0
    3.1982  -24.8516   47.6597 H   0  0
    4.3355  -23.6278   49.5058 H   0  0
    0.8173  -23.7267   51.8518 H   0  0
   -2.9434  -27.8897   48.3067 H   0  0
   -4.4142  -27.7201   49.2360 H   0  0
   -1.8139  -29.0445   50.1291 H   0  0
   -3.4235  -29.7957   49.9284 H   0  0
   -3.3759  -28.7740   54.2878 H   0  0
   -5.4518  -29.3258   55.5518 H   0  0
   -6.8028  -28.2004   56.1942 H   0  0
   -8.6575  -31.4106   53.1920 H   0  0
   -9.9994  -30.3999   54.2264 H   0  0
   -8.8466  -30.8665   56.1771 H   0  0
   -7.5038  -31.8759   55.1425 H   0  0
   -7.4236  -30.3635   51.8595 H   0  0
   -5.3513  -29.8097   50.5924 H   0  0
   -2.6433  -27.2283   53.1752 H   0  0
   -1.4248  -27.4509   51.8632 H   0  0
   -2.6529  -25.2462   51.6973 H   0  0
   -4.1673  -26.1369   51.5341 H   0  0
  1  2  1  0
  2  3  1  0
  2  4  1  0
  4  5  2  0
  4  9  1  0
  5  6  1  0
  6  7  2  0
  7  8  1  0
  8  9  2  0
  9 10  1  0
 10 11  1  0
 10 20  1  0
 10 36  1  0
 11 12  2  0
 11 13  1  0
 13 14  1  0
 14 15  2  0
 14 19  1  0
 15 16  1  0
 16 17  2  0
 17 18  1  0
 18 19  2  0
 20 21  1  0
 21 22  1  0
 22 23  1  0
 22 35  1  0
 23 24  2  0
 23 34  1  0
 24 25  1  0
 25 26  2  0
 26 27  1  0
 26 33  1  0
 27 28  1  0
 27 31  1  0
 27 32  1  0
 28 29  2  0
 28 30  1  0
 31 32  1  0
 33 34  2  0
 35 36  1  0
  1 37  1  0
  1 38  1  0
  1 39  1  0
  2 40  1  0
  3 41  1  0
  3 42  1  0
  3 43  1  0
  5 44  1  0
  6 45  1  0
  7 46  1  0
  8 47  1  0
 13 48  1  0
 15 49  1  0
 16 50  1  0
 17 51  1  0
 19 52  1  0
 20 53  1  0
 20 54  1  0
 21 55  1  0
 21 56  1  0
 24 57  1  0
 25 58  1  0
 30 59  1  0
 31 60  1  0
 31 61  1  0
 32 62  1  0
 32 63  1  0
 33 64  1  0
 34 65  1  0
 35 66  1  0
 35 67  1  0
 36 68  1  0
 36 69  1  0
M  END
> <Name>
Molecule

> <AbsoluteEnergy>
77.91

> <Clean Energy>
200.984

> <ConfNumber>
87

> <MOL_NUMBER>
2

> <RelativeEnergy>
16.4068

> <POSE_NUMBER>
40

> <LibDockScore>
120.9098

> <HotSpots>
-4.93,-23.52,47.59,A,26,7
1.87,-25.32,48.38,A,30,16
-7.73,-27.92,56.98,P,70,30

$$$$
Molecule
  SciTegic05072616053D

 69 73  0  0  0  0            999 V2000
   -4.2454  -24.6995   52.5640 C   0  0  0  1  0  0
   -4.5275  -25.1421   51.1107 C   0  0  0  1  0  0
   -5.9488  -24.9018   50.5628 C   0  0  0  1  0  0
   -3.8486  -26.4385   50.6966 C   0  0  0  1  0  0
   -2.6481  -26.2446   49.9734 C   0  0  0  1  0  0
   -1.9400  -27.3048   49.4077 C   0  0  0  1  0  0
   -2.4331  -28.6006   49.5319 C   0  0  0  1  0  0
   -3.5956  -28.8324   50.2732 C   0  0  0  1  0  0
   -4.2955  -27.7906   50.9456 C   0  0  0  1  0  0
   -5.4575  -28.2409   51.8557 C   0  0  0  1  0  0
   -4.9009  -28.9843   53.0982 C   0  0  0  1  0  0
   -4.1131  -28.3852   53.7986 O   0  0  0  1  0  0
   -5.2800  -30.2757   53.4432 N   0  0  0  1  0  0
   -4.9307  -30.9527   54.6043 C   0  0  0  1  0  0
   -4.1198  -30.3801   55.6126 C   0  0  0  1  0  0
   -3.8256  -31.1237   56.7678 C   0  0  0  1  0  0
   -4.3349  -32.4295   56.8984 C   0  0  0  1  0  0
   -5.1036  -32.9900   55.9229 N   0  0  0  1  0  0
   -5.3963  -32.2767   54.7961 C   0  0  0  1  0  0
   -6.4756  -29.0843   51.0183 C   0  0  0  1  0  0
   -7.9543  -28.9954   51.4851 C   0  0  0  1  0  0
   -8.1006  -28.7695   52.9542 N   0  0  0  1  0  0
   -8.8652  -29.5902   53.7931 C   0  0  0  1  0  0
   -9.6643  -30.6469   53.2898 C   0  0  0  1  0  0
  -10.4346  -31.4440   54.1535 C   0  0  0  1  0  0
  -10.4132  -31.2134   55.5400 C   0  0  0  1  0  0
  -11.2438  -32.0713   56.4637 C   0  0  0  1  0  0
  -12.7347  -31.8059   56.3249 C   0  0  0  1  0  0
  -13.4024  -31.6582   57.3244 O   0  0  0  1  0  0
  -13.2668  -31.7459   55.1051 O   0  0  0  1  0  0
  -10.6986  -32.4436   57.8349 C   0  0  0  1  0  0
  -10.7888  -33.4925   56.7549 C   0  0  0  1  0  0
   -9.6161  -30.1787   56.0566 C   0  0  0  1  0  0
   -8.8511  -29.3776   55.1927 C   0  0  0  1  0  0
   -7.3592  -27.5870   53.4966 C   0  0  0  1  0  0
   -6.2439  -27.0903   52.5503 C   0  0  0  1  0  0
   -4.9734  -25.2226   53.1841 H   0  0
   -4.4822  -23.6363   52.6057 H   0  0
   -3.2219  -24.9012   52.8800 H   0  0
   -3.9896  -24.3884   50.5356 H   0  0
   -6.1336  -23.8325   50.6656 H   0  0
   -6.6247  -25.4187   51.2440 H   0  0
   -6.0719  -25.2390   49.5336 H   0  0
   -2.2633  -25.2318   49.8542 H   0  0
   -1.0083  -27.1202   48.8729 H   0  0
   -1.9149  -29.4314   49.0530 H   0  0
   -3.9810  -29.8499   50.3389 H   0  0
   -5.9012  -30.7993   52.7469 H   0  0
   -3.7266  -29.3704   55.4941 H   0  0
   -3.2082  -30.6931   57.5562 H   0  0
   -4.1100  -33.0034   57.7974 H   0  0
   -6.0066  -32.7400   54.0208 H   0  0
   -6.4203  -28.7640   49.9779 H   0  0
   -6.1665  -30.1293   51.0426 H   0  0
   -8.4448  -28.1801   50.9534 H   0  0
   -8.4666  -29.9200   51.2190 H   0  0
   -9.6816  -30.8441   52.2179 H   0  0
  -11.0517  -32.2450   53.7464 H   0  0
  -13.0222  -32.6617   54.6535 H   0  0
  -11.4984  -32.5505   58.5677 H   0  0
   -9.6764  -32.0892   57.9678 H   0  0
   -9.8144  -33.6993   56.3123 H   0  0
  -11.6367  -34.1594   56.9111 H   0  0
   -9.5910  -29.9968   57.1310 H   0  0
   -8.2362  -28.5787   55.6070 H   0  0
   -8.0655  -26.7749   53.6687 H   0  0
   -6.9163  -27.8552   54.4558 H   0  0
   -5.5446  -26.4791   53.1209 H   0  0
   -6.6891  -26.4540   51.7855 H   0  0
  1  2  1  0
  2  3  1  0
  2  4  1  0
  4  5  2  0
  4  9  1  0
  5  6  1  0
  6  7  2  0
  7  8  1  0
  8  9  2  0
  9 10  1  0
 10 11  1  0
 10 20  1  0
 10 36  1  0
 11 12  2  0
 11 13  1  0
 13 14  1  0
 14 15  2  0
 14 19  1  0
 15 16  1  0
 16 17  2  0
 17 18  1  0
 18 19  2  0
 20 21  1  0
 21 22  1  0
 22 23  1  0
 22 35  1  0
 23 24  2  0
 23 34  1  0
 24 25  1  0
 25 26  2  0
 26 27  1  0
 26 33  1  0
 27 28  1  0
 27 31  1  0
 27 32  1  0
 28 29  2  0
 28 30  1  0
 31 32  1  0
 33 34  2  0
 35 36  1  0
  1 37  1  0
  1 38  1  0
  1 39  1  0
  2 40  1  0
  3 41  1  0
  3 42  1  0
  3 43  1  0
  5 44  1  0
  6 45  1  0
  7 46  1  0
  8 47  1  0
 13 48  1  0
 15 49  1  0
 16 50  1  0
 17 51  1  0
 19 52  1  0
 20 53  1  0
 20 54  1  0
 21 55  1  0
 21 56  1  0
 24 57  1  0
 25 58  1  0
 30 59  1  0
 31 60  1  0
 31 61  1  0
 32 62  1  0
 32 63  1  0
 33 64  1  0
 34 65  1  0
 35 66  1  0
 35 67  1  0
 36 68  1  0
 36 69  1  0
M  END
> <Name>
Molecule

> <AbsoluteEnergy>
80.0385

> <Clean Energy>
200.984

> <ConfNumber>
102

> <MOL_NUMBER>
2

> <RelativeEnergy>
18.5354

> <POSE_NUMBER>
41

> <LibDockScore>
120.8569

> <HotSpots>
-6.53,-23.32,50.38,A,45,1
-4.13,-31.12,56.59,A,79,17
-13.33,-32.52,54.59,P,52,30

$$$$
Molecule
  SciTegic05072616053D

 69 73  0  0  0  0            999 V2000
    0.8779  -23.6490   46.7184 C   0  0  0  1  0  0
    1.1400  -24.9849   47.4416 C   0  0  0  1  0  0
    2.2686  -25.7360   46.6948 C   0  0  0  1  0  0
    1.3453  -24.7735   48.9348 C   0  0  0  1  0  0
    2.6754  -24.8733   49.4132 C   0  0  0  1  0  0
    3.0109  -24.5991   50.7409 C   0  0  0  1  0  0
    2.0189  -24.2003   51.6310 C   0  0  0  1  0  0
    0.6929  -24.1195   51.1989 C   0  0  0  1  0  0
    0.2931  -24.4621   49.8771 C   0  0  0  1  0  0
   -1.2338  -24.4347   49.6026 C   0  0  0  1  0  0
   -1.5669  -23.3489   48.5565 C   0  0  0  1  0  0
   -0.7138  -22.5585   48.2158 O   0  0  0  1  0  0
   -2.8443  -23.2843   48.0102 N   0  0  0  1  0  0
   -3.3029  -22.5230   46.9355 C   0  0  0  1  0  0
   -4.6245  -22.7447   46.4820 C   0  0  0  1  0  0
   -5.1310  -22.0008   45.4046 C   0  0  0  1  0  0
   -4.3127  -21.0381   44.7887 C   0  0  0  1  0  0
   -3.0393  -20.8115   45.2207 N   0  0  0  1  0  0
   -2.5372  -21.5275   46.2702 C   0  0  0  1  0  0
   -1.8510  -25.8057   49.1623 C   0  0  0  1  0  0
   -1.7183  -26.9216   50.2302 C   0  0  0  1  0  0
   -2.4387  -26.4660   51.4385 N   0  0  0  1  0  0
   -3.5724  -27.1122   51.8991 C   0  0  0  1  0  0
   -3.6630  -28.5226   51.9348 C   0  0  0  1  0  0
   -4.8773  -29.1424   52.2780 C   0  0  0  1  0  0
   -6.0038  -28.3603   52.5956 C   0  0  0  1  0  0
   -7.3445  -29.0065   52.8543 C   0  0  0  1  0  0
   -8.3500  -28.7420   51.7316 C   0  0  0  1  0  0
   -8.4538  -27.6190   51.2855 O   0  0  0  1  0  0
   -9.0915  -29.7513   51.2694 O   0  0  0  1  0  0
   -7.8671  -29.0563   54.2802 C   0  0  0  1  0  0
   -7.3987  -30.3259   53.6095 C   0  0  0  1  0  0
   -5.8883  -26.9604   52.6475 C   0  0  0  1  0  0
   -4.6793  -26.3408   52.3091 C   0  0  0  1  0  0
   -1.9327  -25.1933   52.0090 C   0  0  0  1  0  0
   -2.0328  -24.1000   50.9255 C   0  0  0  1  0  0
    0.5681  -23.8372   45.6904 H   0  0
    1.7819  -23.0401   46.7231 H   0  0
    0.0838  -23.1122   47.2374 H   0  0
    0.2683  -25.6383   47.4046 H   0  0
    3.1797  -25.1376   46.6993 H   0  0
    1.9659  -25.9348   45.6667 H   0  0
    2.4614  -26.6829   47.1991 H   0  0
    3.4628  -25.1740   48.7221 H   0  0
    4.0430  -24.6969   51.0774 H   0  0
    2.2751  -23.9520   52.6609 H   0  0
   -0.0666  -23.7801   51.9032 H   0  0
   -3.5778  -23.9056   48.4802 H   0  0
   -5.2495  -23.4931   46.9692 H   0  0
   -6.1479  -22.1679   45.0495 H   0  0
   -4.7034  -20.4618   43.9500 H   0  0
   -1.5197  -21.3295   46.6072 H   0  0
   -1.3612  -26.1361   48.2463 H   0  0
   -2.9071  -25.6603   48.9352 H   0  0
   -0.6666  -27.0820   50.4674 H   0  0
   -2.1684  -27.8421   49.8583 H   0  0
   -2.7902  -29.1303   51.6959 H   0  0
   -4.9466  -30.2300   52.2982 H   0  0
   -9.5873  -30.1323   52.1129 H   0  0
   -8.9550  -28.9954   54.3104 H   0  0
   -7.1298  -28.6807   54.9897 H   0  0
   -6.4118  -30.6262   53.9617 H   0  0
   -8.2371  -30.9401   53.2809 H   0  0
   -6.7424  -26.3555   52.9521 H   0  0
   -4.5931  -25.2555   52.3629 H   0  0
   -2.5390  -24.9111   52.8697 H   0  0
   -0.8922  -25.3140   52.3106 H   0  0
   -1.6571  -23.1631   51.3368 H   0  0
   -3.0830  -23.9492   50.6756 H   0  0
  1  2  1  0
  2  3  1  0
  2  4  1  0
  4  5  2  0
  4  9  1  0
  5  6  1  0
  6  7  2  0
  7  8  1  0
  8  9  2  0
  9 10  1  0
 10 11  1  0
 10 20  1  0
 10 36  1  0
 11 12  2  0
 11 13  1  0
 13 14  1  0
 14 15  2  0
 14 19  1  0
 15 16  1  0
 16 17  2  0
 17 18  1  0
 18 19  2  0
 20 21  1  0
 21 22  1  0
 22 23  1  0
 22 35  1  0
 23 24  2  0
 23 34  1  0
 24 25  1  0
 25 26  2  0
 26 27  1  0
 26 33  1  0
 27 28  1  0
 27 31  1  0
 27 32  1  0
 28 29  2  0
 28 30  1  0
 31 32  1  0
 33 34  2  0
 35 36  1  0
  1 37  1  0
  1 38  1  0
  1 39  1  0
  2 40  1  0
  3 41  1  0
  3 42  1  0
  3 43  1  0
  5 44  1  0
  6 45  1  0
  7 46  1  0
  8 47  1  0
 13 48  1  0
 15 49  1  0
 16 50  1  0
 17 51  1  0
 19 52  1  0
 20 53  1  0
 20 54  1  0
 21 55  1  0
 21 56  1  0
 24 57  1  0
 25 58  1  0
 30 59  1  0
 31 60  1  0
 31 61  1  0
 32 62  1  0
 32 63  1  0
 33 64  1  0
 34 65  1  0
 35 66  1  0
 35 67  1  0
 36 68  1  0
 36 69  1  0
M  END
> <Name>
Molecule

> <AbsoluteEnergy>
77.1488

> <Clean Energy>
200.984

> <ConfNumber>
79

> <MOL_NUMBER>
2

> <RelativeEnergy>
15.6457

> <POSE_NUMBER>
42

> <LibDockScore>
120.5003

> <HotSpots>
3.07,-24.52,50.38,A,43,6
-2.53,-21.12,45.98,A,16,19
-6.33,-26.32,51.98,A,57,33

$$$$
Molecule
  SciTegic05072616053D

 69 73  0  0  0  0            999 V2000
    2.6032  -25.1931   51.1460 C   0  0  0  1  0  0
    1.9799  -24.0559   50.3137 C   0  0  0  1  0  0
    2.9282  -22.8345   50.3053 C   0  0  0  1  0  0
    1.5559  -24.5611   48.9499 C   0  0  0  1  0  0
    2.5062  -24.4661   47.9016 C   0  0  0  1  0  0
    2.2299  -24.9286   46.6111 C   0  0  0  1  0  0
    0.9954  -25.5138   46.3340 C   0  0  0  1  0  0
    0.0400  -25.6215   47.3483 C   0  0  0  1  0  0
    0.2709  -25.1406   48.6635 C   0  0  0  1  0  0
   -0.9197  -25.3428   49.6204 C   0  0  0  1  0  0
   -2.2158  -24.8336   48.9555 C   0  0  0  1  0  0
   -3.2091  -25.5269   48.9773 O   0  0  0  1  0  0
   -2.2254  -23.5884   48.3335 N   0  0  0  1  0  0
   -3.1823  -23.0984   47.4535 C   0  0  0  1  0  0
   -2.9408  -21.8731   46.7898 C   0  0  0  1  0  0
   -3.8981  -21.3723   45.8917 C   0  0  0  1  0  0
   -5.0827  -22.0971   45.6710 C   0  0  0  1  0  0
   -5.3257  -23.2726   46.3175 N   0  0  0  1  0  0
   -4.4059  -23.7668   47.1951 C   0  0  0  1  0  0
   -0.9911  -26.8822   49.9275 C   0  0  0  1  0  0
   -1.5138  -27.2700   51.3256 C   0  0  0  1  0  0
   -2.6022  -26.3562   51.7638 N   0  0  0  1  0  0
   -3.8725  -26.8333   52.0729 C   0  0  0  1  0  0
   -4.0593  -28.1869   52.4407 C   0  0  0  1  0  0
   -5.3447  -28.6969   52.6817 C   0  0  0  1  0  0
   -6.4670  -27.8592   52.5671 C   0  0  0  1  0  0
   -7.8528  -28.4232   52.7581 C   0  0  0  1  0  0
   -8.2887  -29.2577   51.5650 C   0  0  0  1  0  0
   -9.1026  -28.8012   50.7960 O   0  0  0  1  0  0
   -7.7539  -30.4671   51.3915 O   0  0  0  1  0  0
   -8.3136  -28.8505   54.1440 C   0  0  0  1  0  0
   -8.8994  -27.6139   53.5077 C   0  0  0  1  0  0
   -6.2921  -26.4993   52.2573 C   0  0  0  1  0  0
   -5.0062  -25.9896   52.0104 C   0  0  0  1  0  0
   -2.2355  -24.9068   51.8100 C   0  0  0  1  0  0
   -0.9435  -24.6118   51.0000 C   0  0  0  1  0  0
    2.7611  -24.8492   52.1682 H   0  0
    3.5598  -25.4794   50.7090 H   0  0
    1.9334  -26.0530   51.1507 H   0  0
    1.0557  -23.7032   50.7715 H   0  0
    3.8847  -23.1216   49.8686 H   0  0
    3.0860  -22.4914   51.3278 H   0  0
    2.4856  -22.0313   49.7162 H   0  0
    3.4792  -24.0201   48.1075 H   0  0
    2.9778  -24.8318   45.8241 H   0  0
    0.7767  -25.8850   45.3328 H   0  0
   -0.9168  -26.0917   47.1212 H   0  0
   -1.4063  -22.9374   48.5576 H   0  0
   -2.0189  -21.3214   46.9737 H   0  0
   -3.7242  -20.4307   45.3709 H   0  0
   -5.8217  -21.7113   44.9688 H   0  0
   -4.6175  -24.7024   47.7127 H   0  0
    0.0044  -27.3080   49.8018 H   0  0
   -1.6261  -27.3557   49.1787 H   0  0
   -0.6947  -27.2211   52.0430 H   0  0
   -1.8933  -28.2914   51.2970 H   0  0
   -3.1937  -28.8421   52.5382 H   0  0
   -5.4723  -29.7436   52.9580 H   0  0
   -7.9533  -30.9848   52.2830 H   0  0
   -7.5754  -28.5999   54.9058 H   0  0
   -9.0022  -29.6939   54.0934 H   0  0
   -9.9011  -27.7974   53.1191 H   0  0
   -8.4736  -26.7037   53.9300 H   0  0
   -7.1571  -25.8378   52.2084 H   0  0
   -4.8811  -24.9342   51.7684 H   0  0
   -2.0822  -24.6092   52.8473 H   0  0
   -3.0561  -24.3177   51.4005 H   0  0
   -0.8659  -23.5371   50.8354 H   0  0
   -0.0789  -24.9268   51.5842 H   0  0
  1  2  1  0
  2  3  1  0
  2  4  1  0
  4  5  2  0
  4  9  1  0
  5  6  1  0
  6  7  2  0
  7  8  1  0
  8  9  2  0
  9 10  1  0
 10 11  1  0
 10 20  1  0
 10 36  1  0
 11 12  2  0
 11 13  1  0
 13 14  1  0
 14 15  2  0
 14 19  1  0
 15 16  1  0
 16 17  2  0
 17 18  1  0
 18 19  2  0
 20 21  1  0
 21 22  1  0
 22 23  1  0
 22 35  1  0
 23 24  2  0
 23 34  1  0
 24 25  1  0
 25 26  2  0
 26 27  1  0
 26 33  1  0
 27 28  1  0
 27 31  1  0
 27 32  1  0
 28 29  2  0
 28 30  1  0
 31 32  1  0
 33 34  2  0
 35 36  1  0
  1 37  1  0
  1 38  1  0
  1 39  1  0
  2 40  1  0
  3 41  1  0
  3 42  1  0
  3 43  1  0
  5 44  1  0
  6 45  1  0
  7 46  1  0
  8 47  1  0
 13 48  1  0
 15 49  1  0
 16 50  1  0
 17 51  1  0
 19 52  1  0
 20 53  1  0
 20 54  1  0
 21 55  1  0
 21 56  1  0
 24 57  1  0
 25 58  1  0
 30 59  1  0
 31 60  1  0
 31 61  1  0
 32 62  1  0
 32 63  1  0
 33 64  1  0
 34 65  1  0
 35 66  1  0
 35 67  1  0
 36 68  1  0
 36 69  1  0
M  END
> <Name>
Molecule

> <AbsoluteEnergy>
72.746

> <Clean Energy>
200.984

> <ConfNumber>
54

> <MOL_NUMBER>
2

> <RelativeEnergy>
11.2428

> <POSE_NUMBER>
43

> <LibDockScore>
120.1688

> <HotSpots>
1.87,-24.92,46.78,A,22,6
-5.93,-22.12,45.59,A,14,17
-8.73,-28.12,54.38,A,70,31

$$$$
Molecule
  SciTegic05072616053D

 69 73  0  0  0  0            999 V2000
    0.3336  -25.1535   46.6428 C   0  0  0  1  0  0
    0.3166  -25.1955   48.1834 C   0  0  0  1  0  0
    1.7215  -25.4684   48.7558 C   0  0  0  1  0  0
   -0.7119  -26.1749   48.7040 C   0  0  0  1  0  0
   -0.5444  -27.5233   48.3173 C   0  0  0  1  0  0
   -1.4637  -28.5068   48.6949 C   0  0  0  1  0  0
   -2.5773  -28.1523   49.4570 C   0  0  0  1  0  0
   -2.7569  -26.8222   49.8585 C   0  0  0  1  0  0
   -1.8214  -25.8080   49.5360 C   0  0  0  1  0  0
   -2.0203  -24.3667   50.0500 C   0  0  0  1  0  0
   -2.0983  -23.4397   48.8290 C   0  0  0  1  0  0
   -1.2393  -22.6187   48.6056 O   0  0  0  1  0  0
   -3.2144  -23.5965   48.0145 N   0  0  0  1  0  0
   -3.6974  -22.8244   46.9711 C   0  0  0  1  0  0
   -4.8896  -23.2568   46.3452 C   0  0  0  1  0  0
   -5.4250  -22.5166   45.2854 C   0  0  0  1  0  0
   -4.7714  -21.3453   44.8681 C   0  0  0  1  0  0
   -3.6219  -20.9210   45.4677 N   0  0  0  1  0  0
   -3.0848  -21.6382   46.4987 C   0  0  0  1  0  0
   -0.9238  -24.0854   51.1433 C   0  0  0  1  0  0
   -1.0651  -25.0273   52.3883 C   0  0  0  1  0  0
   -2.5079  -25.2796   52.6707 N   0  0  0  1  0  0
   -3.0381  -26.5116   53.0400 C   0  0  0  1  0  0
   -4.4356  -26.7061   52.9341 C   0  0  0  1  0  0
   -5.0048  -27.9621   53.1363 C   0  0  0  1  0  0
   -4.1904  -29.0595   53.4583 C   0  0  0  1  0  0
   -4.8216  -30.4328   53.5267 C   0  0  0  1  0  0
   -5.3976  -30.8833   52.1729 C   0  0  0  1  0  0
   -5.4011  -30.1071   51.2406 O   0  0  0  1  0  0
   -5.8967  -32.1124   52.0250 O   0  0  0  1  0  0
   -4.2736  -31.4628   54.5053 C   0  0  0  1  0  0
   -5.5993  -30.7929   54.7815 C   0  0  0  1  0  0
   -2.8114  -28.8635   53.6748 C   0  0  0  1  0  0
   -2.2362  -27.5939   53.4717 C   0  0  0  1  0  0
   -3.3583  -24.1257   52.3297 C   0  0  0  1  0  0
   -3.3901  -24.0254   50.7915 C   0  0  0  1  0  0
    0.6986  -26.1114   46.2724 H   0  0
    1.0168  -24.3665   46.3235 H   0  0
   -0.6672  -24.9597   46.2569 H   0  0
    0.0163  -24.2084   48.5351 H   0  0
    2.3937  -24.6789   48.4198 H   0  0
    2.0756  -26.4239   48.3688 H   0  0
    1.6895  -25.4945   49.8450 H   0  0
    0.3185  -27.8025   47.7127 H   0  0
   -1.3113  -29.5438   48.3958 H   0  0
   -3.3076  -28.9103   49.7400 H   0  0
   -3.6430  -26.5596   50.4364 H   0  0
   -3.8019  -24.4641   48.2315 H   0  0
   -5.3894  -24.1631   46.6871 H   0  0
   -6.3384  -22.8449   44.7895 H   0  0
   -5.1916  -20.7632   44.0479 H   0  0
   -2.1647  -21.2899   46.9680 H   0  0
    0.0631  -24.2254   50.7021 H   0  0
   -1.0042  -23.0490   51.4712 H   0  0
   -0.6040  -24.5550   53.2558 H   0  0
   -0.5652  -25.9743   52.1852 H   0  0
   -5.0776  -25.8596   52.6904 H   0  0
   -6.0831  -28.0925   53.0444 H   0  0
   -6.6312  -32.1872   52.7716 H   0  0
   -3.4763  -31.0454   55.1203 H   0  0
   -4.4061  -32.4782   54.1319 H   0  0
   -6.4374  -31.4529   54.5577 H   0  0
   -5.5079  -30.0197   55.5444 H   0  0
   -2.1885  -29.6967   54.0003 H   0  0
   -1.1708  -27.4451   53.6476 H   0  0
   -4.3676  -24.2854   52.7090 H   0  0
   -2.9320  -23.2143   52.7489 H   0  0
   -3.6919  -23.0145   50.5174 H   0  0
   -4.1654  -24.6943   50.4179 H   0  0
  1  2  1  0
  2  3  1  0
  2  4  1  0
  4  5  2  0
  4  9  1  0
  5  6  1  0
  6  7  2  0
  7  8  1  0
  8  9  2  0
  9 10  1  0
 10 11  1  0
 10 20  1  0
 10 36  1  0
 11 12  2  0
 11 13  1  0
 13 14  1  0
 14 15  2  0
 14 19  1  0
 15 16  1  0
 16 17  2  0
 17 18  1  0
 18 19  2  0
 20 21  1  0
 21 22  1  0
 22 23  1  0
 22 35  1  0
 23 24  2  0
 23 34  1  0
 24 25  1  0
 25 26  2  0
 26 27  1  0
 26 33  1  0
 27 28  1  0
 27 31  1  0
 27 32  1  0
 28 29  2  0
 28 30  1  0
 31 32  1  0
 33 34  2  0
 35 36  1  0
  1 37  1  0
  1 38  1  0
  1 39  1  0
  2 40  1  0
  3 41  1  0
  3 42  1  0
  3 43  1  0
  5 44  1  0
  6 45  1  0
  7 46  1  0
  8 47  1  0
 13 48  1  0
 15 49  1  0
 16 50  1  0
 17 51  1  0
 19 52  1  0
 20 53  1  0
 20 54  1  0
 21 55  1  0
 21 56  1  0
 24 57  1  0
 25 58  1  0
 30 59  1  0
 31 60  1  0
 31 61  1  0
 32 62  1  0
 32 63  1  0
 33 64  1  0
 34 65  1  0
 35 66  1  0
 35 67  1  0
 36 68  1  0
 36 69  1  0
M  END
> <Name>
Molecule

> <AbsoluteEnergy>
77.684

> <Clean Energy>
200.984

> <ConfNumber>
83

> <MOL_NUMBER>
2

> <RelativeEnergy>
16.1808

> <POSE_NUMBER>
44

> <LibDockScore>
119.095

> <HotSpots>
0.27,-24.92,46.38,A,19,1
1.87,-25.32,48.38,A,30,3
-4.93,-21.52,45.19,A,11,17

$$$$
Molecule
  SciTegic05072616053D

 69 73  0  0  0  0            999 V2000
   -2.4234  -21.8399   47.3996 C   0  0  0  1  0  0
   -3.0286  -22.9923   48.2232 C   0  0  0  1  0  0
   -4.2195  -22.4992   49.0652 C   0  0  0  1  0  0
   -3.4065  -24.1799   47.3677 C   0  0  0  1  0  0
   -4.4194  -23.9770   46.4039 C   0  0  0  1  0  0
   -4.8137  -24.9991   45.5342 C   0  0  0  1  0  0
   -4.1752  -26.2382   45.5915 C   0  0  0  1  0  0
   -3.1791  -26.4668   46.5465 C   0  0  0  1  0  0
   -2.8066  -25.4754   47.4927 C   0  0  0  1  0  0
   -1.8278  -25.8176   48.6274 C   0  0  0  1  0  0
   -0.4668  -25.1085   48.4726 C   0  0  0  1  0  0
   -0.1259  -24.6197   47.4186 O   0  0  0  1  0  0
    0.3482  -25.0447   49.5930 N   0  0  0  1  0  0
    1.6463  -24.5746   49.7493 C   0  0  0  1  0  0
    2.4655  -24.0775   48.7042 C   0  0  0  1  0  0
    3.7622  -23.6195   49.0074 C   0  0  0  1  0  0
    4.2213  -23.6630   50.3390 C   0  0  0  1  0  0
    3.4355  -24.1464   51.3432 N   0  0  0  1  0  0
    2.1810  -24.5866   51.0629 C   0  0  0  1  0  0
   -1.4935  -27.3504   48.7107 C   0  0  0  1  0  0
   -2.6298  -28.1893   49.3318 C   0  0  0  1  0  0
   -2.8368  -27.7950   50.7490 N   0  0  0  1  0  0
   -3.3905  -28.6592   51.6783 C   0  0  0  1  0  0
   -4.2926  -29.6756   51.2925 C   0  0  0  1  0  0
   -4.9076  -30.4788   52.2638 C   0  0  0  1  0  0
   -4.6487  -30.2611   53.6296 C   0  0  0  1  0  0
   -5.4475  -31.0271   54.6583 C   0  0  0  1  0  0
   -6.8608  -30.4578   54.8749 C   0  0  0  1  0  0
   -7.5358  -30.8967   55.7790 O   0  0  0  1  0  0
   -7.3398  -29.4933   54.0713 O   0  0  0  1  0  0
   -4.7180  -31.6880   55.8199 C   0  0  0  1  0  0
   -5.2804  -32.5379   54.7065 C   0  0  0  1  0  0
   -3.6818  -29.3123   54.0152 C   0  0  0  1  0  0
   -3.0556  -28.5232   53.0426 C   0  0  0  1  0  0
   -2.4134  -26.4205   51.1436 C   0  0  0  1  0  0
   -2.5417  -25.4213   49.9773 C   0  0  0  1  0  0
   -2.0887  -21.0574   48.0806 H   0  0
   -3.1921  -21.4352   46.7412 H   0  0
   -1.5821  -22.2022   46.8087 H   0  0
   -2.2524  -23.3404   48.9048 H   0  0
   -4.9784  -22.0909   48.3978 H   0  0
   -3.8750  -21.7131   49.7372 H   0  0
   -4.6380  -23.3236   49.6425 H   0  0
   -4.9040  -23.0030   46.3366 H   0  0
   -5.6154  -24.8284   44.8157 H   0  0
   -4.4523  -27.0275   44.8927 H   0  0
   -2.6747  -27.4329   46.5650 H   0  0
   -0.0986  -25.4215   50.4893 H   0  0
    2.0962  -24.0502   47.6790 H   0  0
    4.4065  -23.2339   48.2173 H   0  0
    5.2238  -23.3033   50.5708 H   0  0
    1.5626  -24.9629   51.8778 H   0  0
   -1.2881  -27.7230   47.7072 H   0  0
   -0.5903  -27.4849   49.3059 H   0  0
   -3.5503  -28.0229   48.7723 H   0  0
   -2.3678  -29.2463   49.2856 H   0  0
   -4.5113  -29.8360   50.2368 H   0  0
   -5.5882  -31.2741   51.9598 H   0  0
   -7.2580  -29.8957   53.1049 H   0  0
   -5.3423  -31.7295   56.7124 H   0  0
   -3.6379  -31.5715   55.7311 H   0  0
   -4.4998  -32.8762   54.0251 H   0  0
   -6.2044  -33.0328   55.0054 H   0  0
   -3.4219  -29.1927   55.0670 H   0  0
   -2.3012  -27.7959   53.3425 H   0  0
   -3.0326  -26.0811   51.9740 H   0  0
   -1.3761  -26.4477   51.4774 H   0  0
   -2.1492  -24.4589   50.3057 H   0  0
   -3.6013  -25.2647   49.7754 H   0  0
  1  2  1  0
  2  3  1  0
  2  4  1  0
  4  5  2  0
  4  9  1  0
  5  6  1  0
  6  7  2  0
  7  8  1  0
  8  9  2  0
  9 10  1  0
 10 11  1  0
 10 20  1  0
 10 36  1  0
 11 12  2  0
 11 13  1  0
 13 14  1  0
 14 15  2  0
 14 19  1  0
 15 16  1  0
 16 17  2  0
 17 18  1  0
 18 19  2  0
 20 21  1  0
 21 22  1  0
 22 23  1  0
 22 35  1  0
 23 24  2  0
 23 34  1  0
 24 25  1  0
 25 26  2  0
 26 27  1  0
 26 33  1  0
 27 28  1  0
 27 31  1  0
 27 32  1  0
 28 29  2  0
 28 30  1  0
 31 32  1  0
 33 34  2  0
 35 36  1  0
  1 37  1  0
  1 38  1  0
  1 39  1  0
  2 40  1  0
  3 41  1  0
  3 42  1  0
  3 43  1  0
  5 44  1  0
  6 45  1  0
  7 46  1  0
  8 47  1  0
 13 48  1  0
 15 49  1  0
 16 50  1  0
 17 51  1  0
 19 52  1  0
 20 53  1  0
 20 54  1  0
 21 55  1  0
 21 56  1  0
 24 57  1  0
 25 58  1  0
 30 59  1  0
 31 60  1  0
 31 61  1  0
 32 62  1  0
 32 63  1  0
 33 64  1  0
 34 65  1  0
 35 66  1  0
 35 67  1  0
 36 68  1  0
 36 69  1  0
M  END
> <Name>
Molecule

> <AbsoluteEnergy>
70.8777

> <Clean Energy>
200.984

> <ConfNumber>
36

> <MOL_NUMBER>
2

> <RelativeEnergy>
9.37457

> <POSE_NUMBER>
45

> <LibDockScore>
119.0261

> <HotSpots>
-1.73,-21.72,46.78,A,24,1
-2.93,-26.32,45.98,A,15,8
2.67,-23.92,48.98,A,32,15

$$$$
Molecule
  SciTegic05072616053D

 69 73  0  0  0  0            999 V2000
   -3.1321  -25.0286   46.2882 C   0  0  0  1  0  0
   -2.8907  -23.9679   47.3804 C   0  0  0  1  0  0
   -3.5521  -22.6251   47.0186 C   0  0  0  1  0  0
   -1.4292  -23.7956   47.7184 C   0  0  0  1  0  0
   -0.6966  -22.9177   46.8858 C   0  0  0  1  0  0
    0.6703  -22.6988   47.0795 C   0  0  0  1  0  0
    1.3323  -23.3541   48.1176 C   0  0  0  1  0  0
    0.6245  -24.2157   48.9658 C   0  0  0  1  0  0
   -0.7689  -24.4545   48.8103 C   0  0  0  1  0  0
   -1.4942  -25.3839   49.8021 C   0  0  0  1  0  0
   -2.7239  -24.6785   50.3988 C   0  0  0  1  0  0
   -2.5280  -23.7620   51.1655 O   0  0  0  1  0  0
   -4.0212  -25.0644   50.0960 N   0  0  0  1  0  0
   -5.1738  -24.3327   50.3372 C   0  0  0  1  0  0
   -5.2336  -23.3145   51.3149 C   0  0  0  1  0  0
   -6.4377  -22.6176   51.5105 C   0  0  0  1  0  0
   -7.5604  -22.9438   50.7275 C   0  0  0  1  0  0
   -7.5074  -23.9287   49.7868 N   0  0  0  1  0  0
   -6.3439  -24.6156   49.5920 C   0  0  0  1  0  0
   -1.7047  -26.7943   49.1757 C   0  0  0  1  0  0
   -2.3714  -27.8585   50.0818 C   0  0  0  1  0  0
   -2.1439  -27.7341   51.5625 N   0  0  0  1  0  0
   -2.7317  -28.6522   52.4482 C   0  0  0  1  0  0
   -3.7172  -29.5702   52.0078 C   0  0  0  1  0  0
   -4.3318  -30.4629   52.9013 C   0  0  0  1  0  0
   -3.9746  -30.4616   54.2600 C   0  0  0  1  0  0
   -4.6626  -31.3934   55.2311 C   0  0  0  1  0  0
   -6.0549  -30.9134   55.6225 C   0  0  0  1  0  0
   -6.2487  -29.7285   55.7790 O   0  0  0  1  0  0
   -7.0294  -31.8095   55.7816 O   0  0  0  1  0  0
   -3.8402  -32.1200   56.2853 C   0  0  0  1  0  0
   -4.4076  -32.8896   55.1179 C   0  0  0  1  0  0
   -2.9787  -29.5810   54.7115 C   0  0  0  1  0  0
   -2.3670  -28.6876   53.8188 C   0  0  0  1  0  0
   -1.3220  -26.6029   52.0980 C   0  0  0  1  0  0
   -0.6192  -25.7384   51.0419 C   0  0  0  1  0  0
   -2.7202  -24.6606   45.3485 H   0  0
   -4.2066  -25.1707   46.1725 H   0  0
   -2.6571  -25.9707   46.5618 H   0  0
   -3.3705  -24.3424   48.2847 H   0  0
   -4.6232  -22.7863   46.8971 H   0  0
   -3.1368  -22.2762   46.0731 H   0  0
   -3.3707  -21.8889   47.8016 H   0  0
   -1.2094  -22.4003   46.0750 H   0  0
    1.2154  -22.0202   46.4234 H   0  0
    2.4001  -23.1959   48.2689 H   0  0
    1.1591  -24.7194   49.7711 H   0  0
   -4.1445  -26.0201   49.6309 H   0  0
   -4.3542  -23.0721   51.9115 H   0  0
   -6.5017  -21.8310   52.2623 H   0  0
   -8.4918  -22.3975   50.8763 H   0  0
   -6.3149  -25.4049   48.8408 H   0  0
   -2.3071  -26.6846   48.2739 H   0  0
   -0.7368  -27.1767   48.8518 H   0  0
   -2.0282  -28.8437   49.7661 H   0  0
   -3.4459  -27.8407   49.8994 H   0  0
   -4.0036  -29.5839   50.9562 H   0  0
   -5.0884  -31.1590   52.5393 H   0  0
   -6.6663  -32.4820   56.5016 H   0  0
   -4.4155  -32.2878   57.1958 H   0  0
   -2.7742  -31.9291   56.1617 H   0  0
   -3.6441  -33.1098   54.3718 H   0  0
   -5.2862  -33.4672   55.4053 H   0  0
   -2.6795  -29.5913   55.7596 H   0  0
   -1.5974  -28.0082   54.1852 H   0  0
   -0.5674  -27.0101   52.7710 H   0  0
   -1.9660  -25.9612   52.6992 H   0  0
   -0.2878  -24.8133   51.5135 H   0  0
    0.2743  -26.2618   50.7015 H   0  0
  1  2  1  0
  2  3  1  0
  2  4  1  0
  4  5  2  0
  4  9  1  0
  5  6  1  0
  6  7  2  0
  7  8  1  0
  8  9  2  0
  9 10  1  0
 10 11  1  0
 10 20  1  0
 10 36  1  0
 11 12  2  0
 11 13  1  0
 13 14  1  0
 14 15  2  0
 14 19  1  0
 15 16  1  0
 16 17  2  0
 17 18  1  0
 18 19  2  0
 20 21  1  0
 21 22  1  0
 22 23  1  0
 22 35  1  0
 23 24  2  0
 23 34  1  0
 24 25  1  0
 25 26  2  0
 26 27  1  0
 26 33  1  0
 27 28  1  0
 27 31  1  0
 27 32  1  0
 28 29  2  0
 28 30  1  0
 31 32  1  0
 33 34  2  0
 35 36  1  0
  1 37  1  0
  1 38  1  0
  1 39  1  0
  2 40  1  0
  3 41  1  0
  3 42  1  0
  3 43  1  0
  5 44  1  0
  6 45  1  0
  7 46  1  0
  8 47  1  0
 13 48  1  0
 15 49  1  0
 16 50  1  0
 17 51  1  0
 19 52  1  0
 20 53  1  0
 20 54  1  0
 21 55  1  0
 21 56  1  0
 24 57  1  0
 25 58  1  0
 30 59  1  0
 31 60  1  0
 31 61  1  0
 32 62  1  0
 32 63  1  0
 33 64  1  0
 34 65  1  0
 35 66  1  0
 35 67  1  0
 36 68  1  0
 36 69  1  0
M  END
> <Name>
Molecule

> <AbsoluteEnergy>
66.8992

> <Clean Energy>
200.984

> <ConfNumber>
16

> <MOL_NUMBER>
2

> <RelativeEnergy>
5.39599

> <POSE_NUMBER>
46

> <LibDockScore>
118.8445

> <HotSpots>
0.27,-22.52,46.78,A,23,5
-5.13,-23.32,51.38,A,54,15
-4.13,-31.12,56.59,A,79,31

$$$$
Molecule
  SciTegic05072616053D

 69 73  0  0  0  0            999 V2000
   -4.8152  -25.4137   46.0001 C   0  0  0  1  0  0
   -4.7203  -24.2204   46.9842 C   0  0  0  1  0  0
   -5.0112  -24.5267   48.4722 C   0  0  0  1  0  0
   -3.6019  -23.2030   46.7679 C   0  0  0  1  0  0
   -4.0052  -22.0702   46.0183 C   0  0  0  1  0  0
   -3.1181  -21.0481   45.6721 C   0  0  0  1  0  0
   -1.7849  -21.1318   46.0662 C   0  0  0  1  0  0
   -1.3522  -22.2291   46.8198 C   0  0  0  1  0  0
   -2.2320  -23.2748   47.2272 C   0  0  0  1  0  0
   -1.6212  -24.3872   48.1021 C   0  0  0  1  0  0
   -0.0771  -24.3633   48.1527 C   0  0  0  1  0  0
    0.5424  -25.2636   47.6285 O   0  0  0  1  0  0
    0.6082  -23.3408   48.8041 N   0  0  0  1  0  0
    1.8734  -23.4628   49.3594 C   0  0  0  1  0  0
    2.3978  -24.7290   49.7101 C   0  0  0  1  0  0
    3.6745  -24.8121   50.2851 C   0  0  0  1  0  0
    4.4080  -23.6318   50.5112 C   0  0  0  1  0  0
    3.9055  -22.4081   50.1791 N   0  0  0  1  0  0
    2.6630  -22.3142   49.6172 C   0  0  0  1  0  0
   -2.0681  -25.7744   47.5235 C   0  0  0  1  0  0
   -1.7896  -27.0182   48.4104 C   0  0  0  1  0  0
   -2.0942  -26.7698   49.8481 N   0  0  0  1  0  0
   -2.8921  -27.6172   50.6158 C   0  0  0  1  0  0
   -3.0714  -27.3596   51.9931 C   0  0  0  1  0  0
   -3.8260  -28.2267   52.7963 C   0  0  0  1  0  0
   -4.4386  -29.3624   52.2348 C   0  0  0  1  0  0
   -5.2266  -30.3145   53.1114 C   0  0  0  1  0  0
   -4.4186  -31.5011   53.6616 C   0  0  0  1  0  0
   -4.7701  -32.6277   53.3880 O   0  0  0  1  0  0
   -3.3447  -31.3072   54.4376 O   0  0  0  1  0  0
   -6.6919  -30.5371   52.7601 C   0  0  0  1  0  0
   -6.3297  -29.7464   53.9942 C   0  0  0  1  0  0
   -4.3050  -29.6103   50.8562 C   0  0  0  1  0  0
   -3.5347  -28.7481   50.0531 C   0  0  0  1  0  0
   -1.4833  -25.5310   50.4096 C   0  0  0  1  0  0
   -1.9758  -24.3077   49.6212 C   0  0  0  1  0  0
   -5.8227  -25.8167   46.1036 H   0  0
   -4.1175  -26.1676   46.3647 H   0  0
   -4.5988  -25.1281   44.9707 H   0  0
   -5.5992  -23.6709   46.6470 H   0  0
   -4.3081  -25.3054   48.7676 H   0  0
   -6.0132  -24.9545   48.5065 H   0  0
   -4.9270  -23.6451   49.1076 H   0  0
   -5.0450  -21.9935   45.7004 H   0  0
   -3.4672  -20.1904   45.0971 H   0  0
   -1.0817  -20.3464   45.7891 H   0  0
   -0.3021  -22.2865   47.1063 H   0  0
    0.1227  -22.3905   48.8820 H   0  0
    1.8144  -25.6329   49.5349 H   0  0
    4.0947  -25.7812   50.5543 H   0  0
    5.3986  -23.6974   50.9613 H   0  0
    2.2692  -21.3307   49.3607 H   0  0
   -1.5771  -25.9221   46.5616 H   0  0
   -3.1374  -25.7331   47.3162 H   0  0
   -0.7408  -27.2987   48.3136 H   0  0
   -2.3980  -27.8510   48.0577 H   0  0
   -2.6168  -26.4743   52.4378 H   0  0
   -3.9386  -28.0201   53.8606 H   0  0
   -3.7046  -30.7186   55.2291 H   0  0
   -7.0138  -31.5481   53.0100 H   0  0
   -7.0100  -29.8874   51.9447 H   0  0
   -6.4557  -28.6752   53.8371 H   0  0
   -6.4579  -30.3360   54.9020 H   0  0
   -4.7994  -30.4725   50.4087 H   0  0
   -3.4314  -28.9524   48.9874 H   0  0
   -1.7701  -25.4271   51.4560 H   0  0
   -0.3976  -25.5955   50.3369 H   0  0
   -1.5268  -23.4092   50.0445 H   0  0
   -3.0573  -24.2276   49.7311 H   0  0
  1  2  1  0
  2  3  1  0
  2  4  1  0
  4  5  2  0
  4  9  1  0
  5  6  1  0
  6  7  2  0
  7  8  1  0
  8  9  2  0
  9 10  1  0
 10 11  1  0
 10 20  1  0
 10 36  1  0
 11 12  2  0
 11 13  1  0
 13 14  1  0
 14 15  2  0
 14 19  1  0
 15 16  1  0
 16 17  2  0
 17 18  1  0
 18 19  2  0
 20 21  1  0
 21 22  1  0
 22 23  1  0
 22 35  1  0
 23 24  2  0
 23 34  1  0
 24 25  1  0
 25 26  2  0
 26 27  1  0
 26 33  1  0
 27 28  1  0
 27 31  1  0
 27 32  1  0
 28 29  2  0
 28 30  1  0
 31 32  1  0
 33 34  2  0
 35 36  1  0
  1 37  1  0
  1 38  1  0
  1 39  1  0
  2 40  1  0
  3 41  1  0
  3 42  1  0
  3 43  1  0
  5 44  1  0
  6 45  1  0
  7 46  1  0
  8 47  1  0
 13 48  1  0
 15 49  1  0
 16 50  1  0
 17 51  1  0
 19 52  1  0
 20 53  1  0
 20 54  1  0
 21 55  1  0
 21 56  1  0
 24 57  1  0
 25 58  1  0
 30 59  1  0
 31 60  1  0
 31 61  1  0
 32 62  1  0
 32 63  1  0
 33 64  1  0
 34 65  1  0
 35 66  1  0
 35 67  1  0
 36 68  1  0
 36 69  1  0
M  END
> <Name>
Molecule

> <AbsoluteEnergy>
79.8317

> <Clean Energy>
200.984

> <ConfNumber>
100

> <MOL_NUMBER>
2

> <RelativeEnergy>
18.3285

> <POSE_NUMBER>
47

> <LibDockScore>
118.2562

> <HotSpots>
2.67,-23.92,48.98,A,32,15
4.67,-22.92,49.98,A,40,17
-6.53,-30.72,51.78,A,56,31

$$$$
Molecule
  SciTegic05072616053D

 69 73  0  0  0  0            999 V2000
    3.1689  -25.0730   50.3009 C   0  0  0  1  0  0
    1.9636  -24.1593   50.0090 C   0  0  0  1  0  0
    2.4111  -22.6809   49.9573 C   0  0  0  1  0  0
    1.2026  -24.6325   48.7877 C   0  0  0  1  0  0
    1.8648  -24.5137   47.5402 C   0  0  0  1  0  0
    1.2608  -24.9042   46.3392 C   0  0  0  1  0  0
   -0.0282  -25.4372   46.3544 C   0  0  0  1  0  0
   -0.6966  -25.5826   47.5719 C   0  0  0  1  0  0
   -0.1187  -25.1992   48.8104 C   0  0  0  1  0  0
   -1.0254  -25.4907   50.0190 C   0  0  0  1  0  0
   -2.2223  -24.5178   49.9189 C   0  0  0  1  0  0
   -1.9511  -23.3429   49.8018 O   0  0  0  1  0  0
   -3.5478  -24.9363   49.9601 N   0  0  0  1  0  0
   -4.6946  -24.1440   50.0434 C   0  0  0  1  0  0
   -4.6858  -22.7274   49.9936 C   0  0  0  1  0  0
   -5.8921  -22.0176   50.1182 C   0  0  0  1  0  0
   -7.0969  -22.7233   50.2780 C   0  0  0  1  0  0
   -7.1183  -24.0846   50.3080 N   0  0  0  1  0  0
   -5.9531  -24.7825   50.1864 C   0  0  0  1  0  0
   -0.5234  -25.2203   51.4757 C   0  0  0  1  0  0
   -1.5671  -25.6153   52.5616 C   0  0  0  1  0  0
   -2.2549  -26.8979   52.2187 N   0  0  0  1  0  0
   -3.5419  -27.2442   52.6262 C   0  0  0  1  0  0
   -3.8409  -28.5695   53.0254 C   0  0  0  1  0  0
   -5.1675  -28.9712   53.2420 C   0  0  0  1  0  0
   -6.2140  -28.0479   53.0867 C   0  0  0  1  0  0
   -7.6491  -28.5008   53.1578 C   0  0  0  1  0  0
   -8.3519  -28.2910   51.8210 C   0  0  0  1  0  0
   -8.9086  -29.2257   51.2932 O   0  0  0  1  0  0
   -8.3256  -27.0874   51.2451 O   0  0  0  1  0  0
   -8.4364  -28.3005   54.4418 C   0  0  0  1  0  0
   -8.0350  -29.6925   54.0180 C   0  0  0  1  0  0
   -5.9174  -26.6987   52.8322 C   0  0  0  1  0  0
   -4.5918  -26.2977   52.6116 C   0  0  0  1  0  0
   -1.4814  -27.7574   51.2951 C   0  0  0  1  0  0
   -1.3255  -27.0387   49.9423 C   0  0  0  1  0  0
    3.6069  -24.7920   51.2587 H   0  0
    3.9128  -24.9456   49.5145 H   0  0
    2.8456  -26.1134   50.3358 H   0  0
    1.2466  -24.2235   50.8274 H   0  0
    3.1572  -22.5604   49.1719 H   0  0
    2.8513  -22.4068   50.9161 H   0  0
    1.5533  -22.0409   49.7505 H   0  0
    2.8753  -24.1058   47.5152 H   0  0
    1.7956  -24.7922   45.3960 H   0  0
   -0.5097  -25.7377   45.4238 H   0  0
   -1.7007  -26.0068   47.5711 H   0  0
   -3.7084  -25.9935   49.9235 H   0  0
   -3.7467  -22.1906   49.8591 H   0  0
   -5.8934  -20.9279   50.0911 H   0  0
   -8.0311  -22.1710   50.3798 H   0  0
   -5.9902  -25.8718   50.1996 H   0  0
   -0.2885  -24.1610   51.5799 H   0  0
    0.3939  -25.7842   51.6450 H   0  0
   -1.0621  -25.7261   53.5212 H   0  0
   -2.3111  -24.8237   52.6503 H   0  0
   -3.0312  -29.2856   53.1660 H   0  0
   -5.3857  -29.9994   53.5307 H   0  0
   -7.3057  -26.8548   51.1548 H   0  0
   -9.4898  -28.1066   54.2395 H   0  0
   -7.8022  -27.9261   55.2453 H   0  0
   -7.1873  -30.0602   54.5962 H   0  0
   -8.8742  -30.2401   53.5891 H   0  0
   -6.7198  -25.9614   52.8061 H   0  0
   -4.3690  -25.2468   52.4272 H   0  0
   -2.0079  -28.7002   51.1467 H   0  0
   -0.4961  -27.9524   51.7185 H   0  0
   -0.5228  -27.5221   49.3853 H   0  0
   -2.2381  -27.1876   49.3651 H   0  0
  1  2  1  0
  2  3  1  0
  2  4  1  0
  4  5  2  0
  4  9  1  0
  5  6  1  0
  6  7  2  0
  7  8  1  0
  8  9  2  0
  9 10  1  0
 10 11  1  0
 10 20  1  0
 10 36  1  0
 11 12  2  0
 11 13  1  0
 13 14  1  0
 14 15  2  0
 14 19  1  0
 15 16  1  0
 16 17  2  0
 17 18  1  0
 18 19  2  0
 20 21  1  0
 21 22  1  0
 22 23  1  0
 22 35  1  0
 23 24  2  0
 23 34  1  0
 24 25  1  0
 25 26  2  0
 26 27  1  0
 26 33  1  0
 27 28  1  0
 27 31  1  0
 27 32  1  0
 28 29  2  0
 28 30  1  0
 31 32  1  0
 33 34  2  0
 35 36  1  0
  1 37  1  0
  1 38  1  0
  1 39  1  0
  2 40  1  0
  3 41  1  0
  3 42  1  0
  3 43  1  0
  5 44  1  0
  6 45  1  0
  7 46  1  0
  8 47  1  0
 13 48  1  0
 15 49  1  0
 16 50  1  0
 17 51  1  0
 19 52  1  0
 20 53  1  0
 20 54  1  0
 21 55  1  0
 21 56  1  0
 24 57  1  0
 25 58  1  0
 30 59  1  0
 31 60  1  0
 31 61  1  0
 32 62  1  0
 32 63  1  0
 33 64  1  0
 34 65  1  0
 35 66  1  0
 35 67  1  0
 36 68  1  0
 36 69  1  0
M  END
> <Name>
Molecule

> <AbsoluteEnergy>
78.9354

> <Clean Energy>
200.984

> <ConfNumber>
96

> <MOL_NUMBER>
2

> <RelativeEnergy>
17.4323

> <POSE_NUMBER>
48

> <LibDockScore>
117.2242

> <HotSpots>
2.67,-22.92,49.98,A,39,3
1.27,-23.52,47.59,A,27,5
-8.73,-28.12,54.38,A,70,31

$$$$
Molecule
  SciTegic05072616053D

 69 73  0  0  0  0            999 V2000
   -0.9382  -29.6293   49.8746 C   0  0  0  1  0  0
   -2.0476  -28.5889   50.1235 C   0  0  0  1  0  0
   -3.3152  -28.9424   49.3170 C   0  0  0  1  0  0
   -2.3380  -28.4235   51.6004 C   0  0  0  1  0  0
   -2.6397  -29.6027   52.3194 C   0  0  0  1  0  0
   -2.8785  -29.5728   53.6965 C   0  0  0  1  0  0
   -2.7933  -28.3620   54.3860 C   0  0  0  1  0  0
   -2.4973  -27.1813   53.6927 C   0  0  0  1  0  0
   -2.3152  -27.1615   52.2842 C   0  0  0  1  0  0
   -2.0984  -25.8228   51.5435 C   0  0  0  1  0  0
   -0.5897  -25.5183   51.4682 C   0  0  0  1  0  0
    0.0953  -25.6513   52.4594 O   0  0  0  1  0  0
   -0.0194  -25.0910   50.2775 N   0  0  0  1  0  0
    1.2730  -24.6142   50.0744 C   0  0  0  1  0  0
    2.2742  -24.6174   51.0766 C   0  0  0  1  0  0
    3.5508  -24.1120   50.7823 C   0  0  0  1  0  0
    3.8198  -23.6237   49.4918 C   0  0  0  1  0  0
    2.8661  -23.6283   48.5198 N   0  0  0  1  0  0
    1.6204  -24.1113   48.7959 C   0  0  0  1  0  0
   -2.7475  -24.5787   52.2731 C   0  0  0  1  0  0
   -4.3041  -24.5526   52.3523 C   0  0  0  1  0  0
   -4.8596  -25.5193   51.3768 N   0  0  0  1  0  0
   -5.7436  -26.5272   51.7307 C   0  0  0  1  0  0
   -5.3610  -27.8783   51.5713 C   0  0  0  1  0  0
   -6.1693  -28.9106   52.0644 C   0  0  0  1  0  0
   -7.3767  -28.6071   52.7175 C   0  0  0  1  0  0
   -8.1762  -29.7074   53.3721 C   0  0  0  1  0  0
   -7.8765  -29.8246   54.8686 C   0  0  0  1  0  0
   -8.7744  -30.0926   55.6325 O   0  0  0  1  0  0
   -6.6261  -29.6247   55.3008 O   0  0  0  1  0  0
   -9.5825  -29.9943   52.8692 C   0  0  0  1  0  0
   -8.4701  -30.9782   52.5911 C   0  0  0  1  0  0
   -7.8185  -27.2733   52.7854 C   0  0  0  1  0  0
   -7.0076  -26.2383   52.2920 C   0  0  0  1  0  0
   -4.2435  -25.4003   50.0414 C   0  0  0  1  0  0
   -2.7842  -25.9001   50.1137 C   0  0  0  1  0  0
   -0.6998  -29.6466   48.8111 H   0  0
   -1.2992  -30.6124   50.1766 H   0  0
   -0.0483  -29.3705   50.4483 H   0  0
   -1.6909  -27.6218   49.7691 H   0  0
   -3.6662  -29.9285   49.6213 H   0  0
   -3.0668  -28.9626   48.2559 H   0  0
   -4.0929  -28.2009   49.5001 H   0  0
   -2.6871  -30.5541   51.7895 H   0  0
   -3.1299  -30.4900   54.2290 H   0  0
   -2.9570  -28.3353   55.4633 H   0  0
   -2.4039  -26.2498   54.2509 H   0  0
   -0.6476  -25.1329   49.4124 H   0  0
    2.0550  -25.0096   52.0697 H   0  0
    4.3265  -24.0984   51.5479 H   0  0
    4.8119  -23.2335   49.2646 H   0  0
    0.8678  -24.1103   48.0074 H   0  0
   -2.3513  -24.5282   53.2873 H   0  0
   -2.4143  -23.6705   51.7708 H   0  0
   -4.6647  -23.5513   52.1168 H   0  0
   -4.6220  -24.8279   53.3579 H   0  0
   -4.4289  -28.1192   51.0602 H   0  0
   -5.8621  -29.9492   51.9417 H   0  0
   -6.3696  -28.6662   54.9574 H   0  0
   -9.8218  -29.3987   51.9883 H   0  0
  -10.2321  -30.3388   53.6738 H   0  0
   -8.5285  -31.8468   53.2470 H   0  0
   -8.1172  -30.9058   51.5624 H   0  0
   -8.7907  -27.0430   53.2212 H   0  0
   -7.3553  -25.2065   52.3424 H   0  0
   -4.8007  -26.0067   49.3274 H   0  0
   -4.2553  -24.3573   49.7249 H   0  0
   -2.1860  -25.3217   49.4096 H   0  0
   -2.7562  -26.9338   49.7692 H   0  0
  1  2  1  0
  2  3  1  0
  2  4  1  0
  4  5  2  0
  4  9  1  0
  5  6  1  0
  6  7  2  0
  7  8  1  0
  8  9  2  0
  9 10  1  0
 10 11  1  0
 10 20  1  0
 10 36  1  0
 11 12  2  0
 11 13  1  0
 13 14  1  0
 14 15  2  0
 14 19  1  0
 15 16  1  0
 16 17  2  0
 17 18  1  0
 18 19  2  0
 20 21  1  0
 21 22  1  0
 22 23  1  0
 22 35  1  0
 23 24  2  0
 23 34  1  0
 24 25  1  0
 25 26  2  0
 26 27  1  0
 26 33  1  0
 27 28  1  0
 27 31  1  0
 27 32  1  0
 28 29  2  0
 28 30  1  0
 31 32  1  0
 33 34  2  0
 35 36  1  0
  1 37  1  0
  1 38  1  0
  1 39  1  0
  2 40  1  0
  3 41  1  0
  3 42  1  0
  3 43  1  0
  5 44  1  0
  6 45  1  0
  7 46  1  0
  8 47  1  0
 13 48  1  0
 15 49  1  0
 16 50  1  0
 17 51  1  0
 19 52  1  0
 20 53  1  0
 20 54  1  0
 21 55  1  0
 21 56  1  0
 24 57  1  0
 25 58  1  0
 30 59  1  0
 31 60  1  0
 31 61  1  0
 32 62  1  0
 32 63  1  0
 33 64  1  0
 34 65  1  0
 35 66  1  0
 35 67  1  0
 36 68  1  0
 36 69  1  0
M  END
> <Name>
Molecule

> <AbsoluteEnergy>
72.3272

> <Clean Energy>
200.984

> <ConfNumber>
50

> <MOL_NUMBER>
2

> <RelativeEnergy>
10.8241

> <POSE_NUMBER>
49

> <LibDockScore>
117.083

> <HotSpots>
-1.93,-29.12,49.19,A,34,1
1.87,-25.32,48.38,A,30,16
-7.93,-28.32,52.38,A,59,25

$$$$
Molecule
  SciTegic05072616053D

 69 73  0  0  0  0            999 V2000
   -2.7607  -26.9531   45.7882 C   0  0  0  1  0  0
   -2.8260  -25.9724   46.9739 C   0  0  0  1  0  0
   -3.6511  -24.7178   46.6331 C   0  0  0  1  0  0
   -1.4524  -25.6196   47.4974 C   0  0  0  1  0  0
   -0.5646  -25.0144   46.5821 C   0  0  0  1  0  0
    0.7322  -24.6492   46.9597 C   0  0  0  1  0  0
    1.1640  -24.8845   48.2674 C   0  0  0  1  0  0
    0.3005  -25.4832   49.1947 C   0  0  0  1  0  0
   -1.0197  -25.8617   48.8415 C   0  0  0  1  0  0
   -1.9339  -26.5063   49.8886 C   0  0  0  1  0  0
   -3.3214  -25.8364   49.8764 C   0  0  0  1  0  0
   -4.3121  -26.5308   49.8345 O   0  0  0  1  0  0
   -3.4277  -24.4494   49.9088 N   0  0  0  1  0  0
   -4.5869  -23.6897   50.0387 C   0  0  0  1  0  0
   -5.8295  -24.2339   50.4452 C   0  0  0  1  0  0
   -6.9462  -23.3958   50.5746 C   0  0  0  1  0  0
   -6.8198  -22.0257   50.2851 C   0  0  0  1  0  0
   -5.6296  -21.4932   49.8880 N   0  0  0  1  0  0
   -4.5330  -22.2984   49.7694 C   0  0  0  1  0  0
   -1.9831  -28.0649   49.6284 C   0  0  0  1  0  0
   -2.1136  -28.9512   50.8902 C   0  0  0  1  0  0
   -2.9737  -28.2608   51.8747 N   0  0  0  1  0  0
   -4.2546  -28.7117   52.1619 C   0  0  0  1  0  0
   -5.2179  -27.8034   52.6444 C   0  0  0  1  0  0
   -6.5527  -28.1896   52.7838 C   0  0  0  1  0  0
   -6.9482  -29.5091   52.5001 C   0  0  0  1  0  0
   -8.4136  -29.8764   52.5922 C   0  0  0  1  0  0
   -9.0150  -29.6528   53.9776 C   0  0  0  1  0  0
   -8.8912  -28.5539   54.4690 O   0  0  0  1  0  0
   -9.6583  -30.6383   54.6134 O   0  0  0  1  0  0
   -9.0127  -30.9122   51.6501 C   0  0  0  1  0  0
   -9.2818  -29.4473   51.4181 C   0  0  0  1  0  0
   -5.9742  -30.4555   52.1227 C   0  0  0  1  0  0
   -4.6351  -30.0571   51.9448 C   0  0  0  1  0  0
   -2.3926  -26.9950   52.4126 C   0  0  0  1  0  0
   -1.4423  -26.3427   51.3712 C   0  0  0  1  0  0
   -2.3099  -26.4393   44.9392 H   0  0
   -3.7773  -27.2452   45.5249 H   0  0
   -2.1728  -27.8325   46.0511 H   0  0
   -3.3460  -26.4876   47.7816 H   0  0
   -4.6595  -25.0305   46.3620 H   0  0
   -3.1921  -24.2246   45.7763 H   0  0
   -3.6841  -24.0386   47.4850 H   0  0
   -0.8959  -24.8278   45.5606 H   0  0
    1.4023  -24.1834   46.2371 H   0  0
    2.1734  -24.6022   48.5667 H   0  0
    0.6518  -25.6621   50.2109 H   0  0
   -2.5116  -23.9031   49.8240 H   0  0
   -5.9175  -25.2996   50.6566 H   0  0
   -7.9045  -23.8031   50.8970 H   0  0
   -7.6905  -21.3768   50.3801 H   0  0
   -3.5860  -21.8576   49.4578 H   0  0
   -1.0801  -28.3575   49.0927 H   0  0
   -2.8217  -28.2805   48.9664 H   0  0
   -1.1273  -29.1189   51.3228 H   0  0
   -2.5637  -29.9064   50.6199 H   0  0
   -4.9184  -26.7899   52.9113 H   0  0
   -7.2940  -27.4625   53.1152 H   0  0
   -8.9608  -31.4225   54.6465 H   0  0
   -9.8700  -31.4130   52.0999 H   0  0
   -8.2664  -31.2996   50.9566 H   0  0
   -8.6803  -29.0520   50.5995 H   0  0
  -10.2828  -29.1649   51.7441 H   0  0
   -6.2576  -31.4966   51.9684 H   0  0
   -3.8879  -30.7891   51.6382 H   0  0
   -1.8340  -27.2122   53.3231 H   0  0
   -3.1987  -26.3005   52.6492 H   0  0
   -1.3471  -25.2808   51.5979 H   0  0
   -0.4534  -26.7910   51.4672 H   0  0
  1  2  1  0
  2  3  1  0
  2  4  1  0
  4  5  2  0
  4  9  1  0
  5  6  1  0
  6  7  2  0
  7  8  1  0
  8  9  2  0
  9 10  1  0
 10 11  1  0
 10 20  1  0
 10 36  1  0
 11 12  2  0
 11 13  1  0
 13 14  1  0
 14 15  2  0
 14 19  1  0
 15 16  1  0
 16 17  2  0
 17 18  1  0
 18 19  2  0
 20 21  1  0
 21 22  1  0
 22 23  1  0
 22 35  1  0
 23 24  2  0
 23 34  1  0
 24 25  1  0
 25 26  2  0
 26 27  1  0
 26 33  1  0
 27 28  1  0
 27 31  1  0
 27 32  1  0
 28 29  2  0
 28 30  1  0
 31 32  1  0
 33 34  2  0
 35 36  1  0
  1 37  1  0
  1 38  1  0
  1 39  1  0
  2 40  1  0
  3 41  1  0
  3 42  1  0
  3 43  1  0
  5 44  1  0
  6 45  1  0
  7 46  1  0
  8 47  1  0
 13 48  1  0
 15 49  1  0
 16 50  1  0
 17 51  1  0
 19 52  1  0
 20 53  1  0
 20 54  1  0
 21 55  1  0
 21 56  1  0
 24 57  1  0
 25 58  1  0
 30 59  1  0
 31 60  1  0
 31 61  1  0
 32 62  1  0
 32 63  1  0
 33 64  1  0
 34 65  1  0
 35 66  1  0
 35 67  1  0
 36 68  1  0
 36 69  1  0
M  END
> <Name>
Molecule

> <AbsoluteEnergy>
69.2189

> <Clean Energy>
200.984

> <ConfNumber>
26

> <MOL_NUMBER>
2

> <RelativeEnergy>
7.71574

> <POSE_NUMBER>
50

> <LibDockScore>
115.1316

> <HotSpots>
-2.93,-26.32,45.98,A,15,1
-4.53,-24.52,46.19,A,17,3
-6.13,-22.12,49.98,A,41,19

$$$$
Molecule
  SciTegic05072616053D

 69 73  0  0  0  0            999 V2000
   -2.3099  -23.7024   48.8454 C   0  0  0  1  0  0
   -3.1608  -24.9828   48.7326 C   0  0  0  1  0  0
   -3.7794  -25.1195   47.3270 C   0  0  0  1  0  0
   -4.2078  -25.0677   49.8230 C   0  0  0  1  0  0
   -5.2418  -24.1086   49.7668 C   0  0  0  1  0  0
   -6.2946  -24.1249   50.6871 C   0  0  0  1  0  0
   -6.3311  -25.1125   51.6773 C   0  0  0  1  0  0
   -5.2984  -26.0574   51.7726 C   0  0  0  1  0  0
   -4.2021  -26.0473   50.8754 C   0  0  0  1  0  0
   -3.0508  -27.0552   51.0409 C   0  0  0  1  0  0
   -1.7166  -26.2899   50.9819 C   0  0  0  1  0  0
   -0.8884  -26.4803   50.1173 O   0  0  0  1  0  0
   -1.5029  -25.3892   52.0156 N   0  0  0  1  0  0
   -0.3240  -24.8635   52.4990 C   0  0  0  1  0  0
    0.9630  -25.1998   52.0220 C   0  0  0  1  0  0
    2.0814  -24.5867   52.6160 C   0  0  0  1  0  0
    1.8937  -23.6608   53.6620 C   0  0  0  1  0  0
    0.6484  -23.3434   54.1194 N   0  0  0  1  0  0
   -0.4377  -23.9263   53.5515 C   0  0  0  1  0  0
   -2.9042  -27.7795   52.4550 C   0  0  0  1  0  0
   -3.3350  -29.2483   52.5152 C   0  0  0  1  0  0
   -4.6307  -29.3688   51.8321 N   0  0  0  1  0  0
   -5.7774  -29.6719   52.5586 C   0  0  0  1  0  0
   -7.0652  -29.5455   51.9941 C   0  0  0  1  0  0
   -8.2109  -29.7221   52.7940 C   0  0  0  1  0  0
   -8.0836  -30.0255   54.1642 C   0  0  0  1  0  0
   -9.2950  -30.1197   55.0717 C   0  0  0  1  0  0
   -9.4332  -28.9176   56.0111 C   0  0  0  1  0  0
   -9.1659  -27.8102   55.5976 O   0  0  0  1  0  0
   -9.8419  -29.1116   57.2697 O   0  0  0  1  0  0
  -10.5637  -30.8050   54.5878 C   0  0  0  1  0  0
   -9.6809  -31.4958   55.5981 C   0  0  0  1  0  0
   -6.8059  -30.2283   54.7075 C   0  0  0  1  0  0
   -5.6653  -30.0723   53.9088 C   0  0  0  1  0  0
   -4.5822  -29.0465   50.3720 C   0  0  0  1  0  0
   -3.3095  -28.2045   50.0109 C   0  0  0  1  0  0
   -2.9452  -22.8405   48.6414 H   0  0
   -1.5157  -23.7429   48.1000 H   0  0
   -1.8803  -23.6209   49.8439 H   0  0
   -2.4921  -25.8310   48.8789 H   0  0
   -2.9752  -25.1504   46.5919 H   0  0
   -4.4048  -24.2480   47.1333 H   0  0
   -4.3772  -26.0288   47.2640 H   0  0
   -5.2193  -23.3418   48.9925 H   0  0
   -7.0818  -23.3729   50.6333 H   0  0
   -7.1655  -25.1480   52.3778 H   0  0
   -5.3405  -26.8160   52.5542 H   0  0
   -2.3879  -25.0514   52.5131 H   0  0
    1.0865  -25.9184   51.2117 H   0  0
    3.0867  -24.8262   52.2694 H   0  0
    2.7641  -23.1872   54.1161 H   0  0
   -1.4298  -23.6634   53.9187 H   0  0
   -1.8631  -27.7145   52.7710 H   0  0
   -3.4826  -27.2224   53.1920 H   0  0
   -2.5948  -29.8687   52.0099 H   0  0
   -3.4384  -29.5590   53.5549 H   0  0
   -7.1732  -29.3104   50.9353 H   0  0
   -9.2018  -29.6235   52.3506 H   0  0
   -9.1622  -29.8043   57.6706 H   0  0
  -10.4365  -31.2236   53.5894 H   0  0
  -11.4514  -30.3778   55.0543 H   0  0
  -10.0974  -31.4367   56.6037 H   0  0
   -9.0813  -32.2814   55.1384 H   0  0
   -6.7002  -30.5084   55.7556 H   0  0
   -4.6799  -30.2621   54.3342 H   0  0
   -4.5713  -29.9748   49.8008 H   0  0
   -5.4739  -28.4821   50.0993 H   0  0
   -3.4384  -27.7720   49.0187 H   0  0
   -2.4420  -28.8639   49.9854 H   0  0
  1  2  1  0
  2  3  1  0
  2  4  1  0
  4  5  2  0
  4  9  1  0
  5  6  1  0
  6  7  2  0
  7  8  1  0
  8  9  2  0
  9 10  1  0
 10 11  1  0
 10 20  1  0
 10 36  1  0
 11 12  2  0
 11 13  1  0
 13 14  1  0
 14 15  2  0
 14 19  1  0
 15 16  1  0
 16 17  2  0
 17 18  1  0
 18 19  2  0
 20 21  1  0
 21 22  1  0
 22 23  1  0
 22 35  1  0
 23 24  2  0
 23 34  1  0
 24 25  1  0
 25 26  2  0
 26 27  1  0
 26 33  1  0
 27 28  1  0
 27 31  1  0
 27 32  1  0
 28 29  2  0
 28 30  1  0
 31 32  1  0
 33 34  2  0
 35 36  1  0
  1 37  1  0
  1 38  1  0
  1 39  1  0
  2 40  1  0
  3 41  1  0
  3 42  1  0
  3 43  1  0
  5 44  1  0
  6 45  1  0
  7 46  1  0
  8 47  1  0
 13 48  1  0
 15 49  1  0
 16 50  1  0
 17 51  1  0
 19 52  1  0
 20 53  1  0
 20 54  1  0
 21 55  1  0
 21 56  1  0
 24 57  1  0
 25 58  1  0
 30 59  1  0
 31 60  1  0
 31 61  1  0
 32 62  1  0
 32 63  1  0
 33 64  1  0
 34 65  1  0
 35 66  1  0
 35 67  1  0
 36 68  1  0
 36 69  1  0
M  END
> <Name>
Molecule

> <AbsoluteEnergy>
77.4344

> <Clean Energy>
200.984

> <ConfNumber>
80

> <MOL_NUMBER>
2

> <RelativeEnergy>
15.9312

> <POSE_NUMBER>
51

> <LibDockScore>
113.914

> <HotSpots>
-5.33,-24.12,49.78,A,36,5
-0.33,-25.52,53.19,A,64,19
-10.93,-30.92,53.98,A,68,31

$$$$
Molecule
  SciTegic05072616053D

 69 73  0  0  0  0            999 V2000
   -3.1644  -26.1386   45.7971 C   0  0  0  1  0  0
   -3.1596  -25.2065   47.0236 C   0  0  0  1  0  0
   -4.1843  -24.0649   46.8635 C   0  0  0  1  0  0
   -1.7724  -24.6848   47.3263 C   0  0  0  1  0  0
   -1.1800  -23.8685   46.3362 C   0  0  0  1  0  0
    0.1008  -23.3350   46.5047 C   0  0  0  1  0  0
    0.8161  -23.6058   47.6730 C   0  0  0  1  0  0
    0.2470  -24.4078   48.6710 C   0  0  0  1  0  0
   -1.0493  -24.9698   48.5315 C   0  0  0  1  0  0
   -1.6178  -25.8548   49.6547 C   0  0  0  1  0  0
   -3.0445  -25.4455   50.0514 C   0  0  0  1  0  0
   -3.8237  -26.3115   50.3830 O   0  0  0  1  0  0
   -3.4453  -24.1161   50.0155 N   0  0  0  1  0  0
   -4.7512  -23.6580   50.1418 C   0  0  0  1  0  0
   -5.7975  -24.4525   50.6696 C   0  0  0  1  0  0
   -7.0954  -23.9228   50.7438 C   0  0  0  1  0  0
   -7.3316  -22.6099   50.2990 C   0  0  0  1  0  0
   -6.3254  -21.8385   49.7990 N   0  0  0  1  0  0
   -5.0603  -22.3420   49.7251 C   0  0  0  1  0  0
   -1.5764  -27.3540   49.1872 C   0  0  0  1  0  0
   -1.3466  -28.4068   50.2955 C   0  0  0  1  0  0
   -1.8605  -27.9714   51.6220 N   0  0  0  1  0  0
   -2.7738  -28.7318   52.3337 C   0  0  0  1  0  0
   -2.8730  -28.6333   53.7398 C   0  0  0  1  0  0
   -3.7847  -29.4407   54.4464 C   0  0  0  1  0  0
   -4.6022  -30.3581   53.7588 C   0  0  0  1  0  0
   -5.5397  -31.2722   54.5270 C   0  0  0  1  0  0
   -4.8492  -32.4984   55.1429 C   0  0  0  1  0  0
   -5.2213  -32.9157   56.2185 O   0  0  0  1  0  0
   -3.8474  -33.1024   54.4941 O   0  0  0  1  0  0
   -6.7011  -30.6309   55.2734 C   0  0  0  1  0  0
   -6.9699  -31.4513   54.0360 C   0  0  0  1  0  0
   -4.5314  -30.4265   52.3531 C   0  0  0  1  0  0
   -3.6231  -29.6220   51.6474 C   0  0  0  1  0  0
   -1.3665  -26.6656   52.1313 C   0  0  0  1  0  0
   -0.7986  -25.7857   50.9904 C   0  0  0  1  0  0
   -2.9212  -25.5520   44.9112 H   0  0
   -4.1634  -26.5590   45.6814 H   0  0
   -2.4355  -26.9386   45.9267 H   0  0
   -3.4671  -25.7980   47.8860 H   0  0
   -5.1760  -24.5000   46.7402 H   0  0
   -3.9338  -23.4930   45.9700 H   0  0
   -4.1677  -23.4158   47.7390 H   0  0
   -1.7332  -23.6506   45.4227 H   0  0
    0.5397  -22.7099   45.7271 H   0  0
    1.8161  -23.1937   47.8084 H   0  0
    0.8153  -24.6058   49.5798 H   0  0
   -2.6811  -23.3798   49.8785 H   0  0
   -5.5970  -25.4666   51.0153 H   0  0
   -7.9127  -24.5237   51.1426 H   0  0
   -8.3403  -22.2007   50.3553 H   0  0
   -4.2627  -21.7110   49.3329 H   0  0
   -0.7898  -27.4631   48.4406 H   0  0
   -2.5143  -27.5850   48.6820 H   0  0
   -0.2787  -28.6084   50.3794 H   0  0
   -1.8424  -29.3352   50.0119 H   0  0
   -2.2406  -27.9288   54.2801 H   0  0
   -3.8580  -29.3552   55.5306 H   0  0
   -3.1448  -32.3403   54.3265 H   0  0
   -6.7659  -29.5621   55.0697 H   0  0
   -6.9443  -31.1814   56.1822 H   0  0
   -7.3570  -32.4395   54.2844 H   0  0
   -7.1771  -30.8204   53.1717 H   0  0
   -5.1861  -31.1084   51.8104 H   0  0
   -3.5745  -29.6865   50.5604 H   0  0
   -0.5846  -26.8416   52.8700 H   0  0
   -2.1875  -26.1371   52.6158 H   0  0
   -0.7658  -24.7506   51.3303 H   0  0
    0.2277  -26.0929   50.7893 H   0  0
  1  2  1  0
  2  3  1  0
  2  4  1  0
  4  5  2  0
  4  9  1  0
  5  6  1  0
  6  7  2  0
  7  8  1  0
  8  9  2  0
  9 10  1  0
 10 11  1  0
 10 20  1  0
 10 36  1  0
 11 12  2  0
 11 13  1  0
 13 14  1  0
 14 15  2  0
 14 19  1  0
 15 16  1  0
 16 17  2  0
 17 18  1  0
 18 19  2  0
 20 21  1  0
 21 22  1  0
 22 23  1  0
 22 35  1  0
 23 24  2  0
 23 34  1  0
 24 25  1  0
 25 26  2  0
 26 27  1  0
 26 33  1  0
 27 28  1  0
 27 31  1  0
 27 32  1  0
 28 29  2  0
 28 30  1  0
 31 32  1  0
 33 34  2  0
 35 36  1  0
  1 37  1  0
  1 38  1  0
  1 39  1  0
  2 40  1  0
  3 41  1  0
  3 42  1  0
  3 43  1  0
  5 44  1  0
  6 45  1  0
  7 46  1  0
  8 47  1  0
 13 48  1  0
 15 49  1  0
 16 50  1  0
 17 51  1  0
 19 52  1  0
 20 53  1  0
 20 54  1  0
 21 55  1  0
 21 56  1  0
 24 57  1  0
 25 58  1  0
 30 59  1  0
 31 60  1  0
 31 61  1  0
 32 62  1  0
 32 63  1  0
 33 64  1  0
 34 65  1  0
 35 66  1  0
 35 67  1  0
 36 68  1  0
 36 69  1  0
M  END
> <Name>
Molecule

> <AbsoluteEnergy>
67.7125

> <Clean Energy>
200.984

> <ConfNumber>
18

> <MOL_NUMBER>
2

> <RelativeEnergy>
6.20936

> <POSE_NUMBER>
52

> <LibDockScore>
113.6825

> <HotSpots>
0.27,-22.52,46.78,A,23,6
-7.33,-24.12,50.38,A,44,16
-3.33,-32.52,54.19,P,48,30

$$$$
Molecule
  SciTegic05072616053D

 69 73  0  0  0  0            999 V2000
   -2.4427  -22.9546   47.6652 C   0  0  0  1  0  0
   -3.0269  -24.3164   48.0930 C   0  0  0  1  0  0
   -3.4837  -25.1284   46.8654 C   0  0  0  1  0  0
   -4.1448  -24.1760   49.1059 C   0  0  0  1  0  0
   -5.3072  -23.5040   48.6650 C   0  0  0  1  0  0
   -6.4228  -23.3600   49.4959 C   0  0  0  1  0  0
   -6.3978  -23.8958   50.7855 C   0  0  0  1  0  0
   -5.2512  -24.5539   51.2492 C   0  0  0  1  0  0
   -4.0856  -24.6843   50.4484 C   0  0  0  1  0  0
   -2.8297  -25.3681   51.0256 C   0  0  0  1  0  0
   -1.6013  -24.4390   50.9541 C   0  0  0  1  0  0
   -1.7321  -23.2931   50.5840 O   0  0  0  1  0  0
   -0.3536  -24.9165   51.3314 N   0  0  0  1  0  0
    0.8897  -24.4965   50.8744 C   0  0  0  1  0  0
    1.0639  -23.5894   49.8028 C   0  0  0  1  0  0
    2.3628  -23.2133   49.4215 C   0  0  0  1  0  0
    3.4681  -23.7517   50.1039 C   0  0  0  1  0  0
    3.3057  -24.6354   51.1286 N   0  0  0  1  0  0
    2.0505  -25.0055   51.5083 C   0  0  0  1  0  0
   -2.6507  -26.7229   50.2607 C   0  0  0  1  0  0
   -3.8345  -27.6986   50.4680 C   0  0  0  1  0  0
   -4.2572  -27.7726   51.8983 N   0  0  0  1  0  0
   -5.4706  -28.3459   52.2789 C   0  0  0  1  0  0
   -6.4195  -27.6154   53.0313 C   0  0  0  1  0  0
   -7.6289  -28.2036   53.4320 C   0  0  0  1  0  0
   -7.9231  -29.5318   53.0799 C   0  0  0  1  0  0
   -9.2324  -30.1540   53.5165 C   0  0  0  1  0  0
   -9.4175  -30.2102   55.0337 C   0  0  0  1  0  0
   -9.0129  -29.2916   55.7113 O   0  0  0  1  0  0
  -10.0263  -31.2627   55.5894 O   0  0  0  1  0  0
  -10.4661  -29.8715   52.6726 C   0  0  0  1  0  0
   -9.8440  -31.2453   52.6499 C   0  0  0  1  0  0
   -6.9946  -30.2666   52.3212 C   0  0  0  1  0  0
   -5.7834  -29.6782   51.9208 C   0  0  0  1  0  0
   -3.2943  -27.1963   52.8784 C   0  0  0  1  0  0
   -2.9285  -25.7302   52.5607 C   0  0  0  1  0  0
   -3.2070  -22.3971   47.1237 H   0  0
   -1.5922  -23.1270   47.0056 H   0  0
   -2.1238  -22.3909   48.5419 H   0  0
   -2.2257  -24.8648   48.5885 H   0  0
   -2.6276  -25.2891   46.2101 H   0  0
   -4.2424  -24.5592   46.3282 H   0  0
   -3.8941  -26.0875   47.1813 H   0  0
   -5.3348  -23.0897   47.6572 H   0  0
   -7.3073  -22.8323   49.1390 H   0  0
   -7.2708  -23.8019   51.4314 H   0  0
   -5.2538  -24.9780   52.2533 H   0  0
   -0.3487  -25.7002   52.0599 H   0  0
    0.1981  -23.1859   49.2777 H   0  0
    2.5126  -22.5094   48.6028 H   0  0
    4.4746  -23.4564   49.8075 H   0  0
    1.9354  -25.7164   52.3265 H   0  0
   -2.5449  -26.5172   49.1955 H   0  0
   -1.7332  -27.2039   50.5999 H   0  0
   -3.5418  -28.6934   50.1320 H   0  0
   -4.6796  -27.3683   49.8641 H   0  0
   -6.2085  -26.5813   53.3037 H   0  0
   -8.3437  -27.6273   54.0194 H   0  0
   -9.4731  -32.0937   55.2640 H   0  0
  -10.2166  -29.3018   51.7775 H   0  0
  -11.3699  -29.8487   53.2815 H   0  0
  -10.4159  -31.9561   53.2464 H   0  0
   -9.2613  -31.4086   51.7433 H   0  0
   -7.2156  -31.2970   52.0426 H   0  0
   -5.0754  -30.2558   51.3264 H   0  0
   -3.7314  -27.2451   53.8757 H   0  0
   -2.3847  -27.7969   52.8786 H   0  0
   -1.9736  -25.5018   53.0341 H   0  0
   -3.6703  -25.0806   53.0252 H   0  0
  1  2  1  0
  2  3  1  0
  2  4  1  0
  4  5  2  0
  4  9  1  0
  5  6  1  0
  6  7  2  0
  7  8  1  0
  8  9  2  0
  9 10  1  0
 10 11  1  0
 10 20  1  0
 10 36  1  0
 11 12  2  0
 11 13  1  0
 13 14  1  0
 14 15  2  0
 14 19  1  0
 15 16  1  0
 16 17  2  0
 17 18  1  0
 18 19  2  0
 20 21  1  0
 21 22  1  0
 22 23  1  0
 22 35  1  0
 23 24  2  0
 23 34  1  0
 24 25  1  0
 25 26  2  0
 26 27  1  0
 26 33  1  0
 27 28  1  0
 27 31  1  0
 27 32  1  0
 28 29  2  0
 28 30  1  0
 31 32  1  0
 33 34  2  0
 35 36  1  0
  1 37  1  0
  1 38  1  0
  1 39  1  0
  2 40  1  0
  3 41  1  0
  3 42  1  0
  3 43  1  0
  5 44  1  0
  6 45  1  0
  7 46  1  0
  8 47  1  0
 13 48  1  0
 15 49  1  0
 16 50  1  0
 17 51  1  0
 19 52  1  0
 20 53  1  0
 20 54  1  0
 21 55  1  0
 21 56  1  0
 24 57  1  0
 25 58  1  0
 30 59  1  0
 31 60  1  0
 31 61  1  0
 32 62  1  0
 32 63  1  0
 33 64  1  0
 34 65  1  0
 35 66  1  0
 35 67  1  0
 36 68  1  0
 36 69  1  0
M  END
> <Name>
Molecule

> <AbsoluteEnergy>
68.2047

> <Clean Energy>
200.984

> <ConfNumber>
21

> <MOL_NUMBER>
2

> <RelativeEnergy>
6.70155

> <POSE_NUMBER>
53

> <LibDockScore>
112.6748

> <HotSpots>
4.07,-23.72,49.78,A,37,17
-9.53,-30.12,52.78,A,62,32
-6.53,-30.72,51.78,A,56,33

$$$$
Molecule
  SciTegic05072616053D

 69 73  0  0  0  0            999 V2000
   -1.3531  -25.4658   49.5776 C   0  0  0  1  0  0
   -1.1307  -24.7013   50.8959 C   0  0  0  1  0  0
   -1.6066  -23.2329   50.9469 C   0  0  0  1  0  0
   -1.3881  -25.5282   52.1442 C   0  0  0  1  0  0
   -0.2672  -25.6382   53.0064 C   0  0  0  1  0  0
   -0.2834  -26.4461   54.1463 C   0  0  0  1  0  0
   -1.4277  -27.1775   54.4508 C   0  0  0  1  0  0
   -2.5585  -27.0652   53.6370 C   0  0  0  1  0  0
   -2.6140  -26.2022   52.5073 C   0  0  0  1  0  0
   -3.9915  -26.1265   51.8086 C   0  0  0  1  0  0
   -4.1732  -24.9857   50.7934 C   0  0  0  1  0  0
   -4.2167  -23.8518   51.2186 O   0  0  0  1  0  0
   -4.3235  -25.2207   49.4339 N   0  0  0  1  0  0
   -4.6599  -24.2937   48.4571 C   0  0  0  1  0  0
   -4.4245  -24.6116   47.1009 C   0  0  0  1  0  0
   -4.7487  -23.6779   46.1044 C   0  0  0  1  0  0
   -5.3104  -22.4431   46.4735 C   0  0  0  1  0  0
   -5.5517  -22.1364   47.7789 N   0  0  0  1  0  0
   -5.2424  -23.0366   48.7550 C   0  0  0  1  0  0
   -5.1241  -25.7657   52.8540 C   0  0  0  1  0  0
   -6.5433  -25.9387   52.2854 C   0  0  0  1  0  0
   -6.7064  -27.3596   51.8942 N   0  0  0  1  0  0
   -7.5564  -28.2383   52.5559 C   0  0  0  1  0  0
   -7.6385  -29.6004   52.1882 C   0  0  0  1  0  0
   -8.4512  -30.4892   52.9097 C   0  0  0  1  0  0
   -9.2042  -30.0285   54.0052 C   0  0  0  1  0  0
  -10.0360  -30.9829   54.8253 C   0  0  0  1  0  0
   -9.4121  -31.2495   56.1898 C   0  0  0  1  0  0
  -10.0350  -30.9700   57.1877 O   0  0  0  1  0  0
   -8.1913  -31.7777   56.2638 O   0  0  0  1  0  0
  -11.5532  -30.9281   54.7104 C   0  0  0  1  0  0
  -10.7999  -32.1095   54.1473 C   0  0  0  1  0  0
   -9.1677  -28.6671   54.3484 C   0  0  0  1  0  0
   -8.3489  -27.7822   53.6330 C   0  0  0  1  0  0
   -5.8004  -27.7695   50.7921 C   0  0  0  1  0  0
   -4.3310  -27.5509   51.2299 C   0  0  0  1  0  0
   -0.8479  -24.8869   48.8044 H   0  0
   -2.4236  -25.4175   49.3780 H   0  0
   -0.9930  -26.4939   49.6159 H   0  0
   -0.0519  -24.5454   50.8982 H   0  0
   -2.6695  -23.2517   50.7061 H   0  0
   -1.0937  -22.7211   50.1325 H   0  0
   -1.4164  -22.7575   51.9092 H   0  0
    0.6358  -25.0744   52.7722 H   0  0
    0.5930  -26.5031   54.7918 H   0  0
   -1.4420  -27.8350   55.3201 H   0  0
   -3.4361  -27.6649   53.8784 H   0  0
   -4.1626  -26.2254   49.1028 H   0  0
   -3.9939  -25.5757   46.8302 H   0  0
   -4.5668  -23.9079   45.0546 H   0  0
   -5.5579  -21.7164   45.6997 H   0  0
   -5.4491  -22.7821   49.7945 H   0  0
   -4.9959  -24.7320   53.1751 H   0  0
   -5.0145  -26.4041   53.7307 H   0  0
   -6.6696  -25.3006   51.4107 H   0  0
   -7.2782  -25.6814   53.0482 H   0  0
   -7.0650  -29.9646   51.3358 H   0  0
   -8.4989  -31.5390   52.6203 H   0  0
   -7.5822  -31.1241   55.7122 H   0  0
  -11.8702  -30.2418   53.9252 H   0  0
  -12.0343  -31.1720   55.6576 H   0  0
  -10.8814  -32.9835   54.7935 H   0  0
  -10.7158  -32.0528   53.0620 H   0  0
   -9.7774  -28.2977   55.1729 H   0  0
   -8.3233  -26.7286   53.9113 H   0  0
   -5.9584  -28.8236   50.5640 H   0  0
   -6.0084  -27.1693   49.9063 H   0  0
   -3.6839  -27.7407   50.3736 H   0  0
   -4.0796  -28.3003   51.9805 H   0  0
  1  2  1  0
  2  3  1  0
  2  4  1  0
  4  5  2  0
  4  9  1  0
  5  6  1  0
  6  7  2  0
  7  8  1  0
  8  9  2  0
  9 10  1  0
 10 11  1  0
 10 20  1  0
 10 36  1  0
 11 12  2  0
 11 13  1  0
 13 14  1  0
 14 15  2  0
 14 19  1  0
 15 16  1  0
 16 17  2  0
 17 18  1  0
 18 19  2  0
 20 21  1  0
 21 22  1  0
 22 23  1  0
 22 35  1  0
 23 24  2  0
 23 34  1  0
 24 25  1  0
 25 26  2  0
 26 27  1  0
 26 33  1  0
 27 28  1  0
 27 31  1  0
 27 32  1  0
 28 29  2  0
 28 30  1  0
 31 32  1  0
 33 34  2  0
 35 36  1  0
  1 37  1  0
  1 38  1  0
  1 39  1  0
  2 40  1  0
  3 41  1  0
  3 42  1  0
  3 43  1  0
  5 44  1  0
  6 45  1  0
  7 46  1  0
  8 47  1  0
 13 48  1  0
 15 49  1  0
 16 50  1  0
 17 51  1  0
 19 52  1  0
 20 53  1  0
 20 54  1  0
 21 55  1  0
 21 56  1  0
 24 57  1  0
 25 58  1  0
 30 59  1  0
 31 60  1  0
 31 61  1  0
 32 62  1  0
 32 63  1  0
 33 64  1  0
 34 65  1  0
 35 66  1  0
 35 67  1  0
 36 68  1  0
 36 69  1  0
M  END
> <Name>
Molecule

> <AbsoluteEnergy>
80.5475

> <Clean Energy>
200.984

> <ConfNumber>
104

> <MOL_NUMBER>
2

> <RelativeEnergy>
19.0443

> <POSE_NUMBER>
54

> <LibDockScore>
112.3816

> <HotSpots>
-0.33,-25.52,53.19,A,64,6
-4.53,-24.52,46.19,A,17,15
-8.73,-28.12,54.38,A,70,33

$$$$
Molecule
  SciTegic05072616053D

 69 73  0  0  0  0            999 V2000
   -4.0200  -29.3681   53.4487 C   0  0  0  1  0  0
   -3.7926  -27.8460   53.3650 C   0  0  0  1  0  0
   -2.6936  -27.3874   54.3436 C   0  0  0  1  0  0
   -3.5106  -27.3915   51.9516 C   0  0  0  1  0  0
   -2.2656  -27.7749   51.4033 C   0  0  0  1  0  0
   -1.9301  -27.4723   50.0799 C   0  0  0  1  0  0
   -2.8450  -26.7920   49.2754 C   0  0  0  1  0  0
   -4.0754  -26.3854   49.8075 C   0  0  0  1  0  0
   -4.4266  -26.6229   51.1606 C   0  0  0  1  0  0
   -5.7592  -26.0762   51.7210 C   0  0  0  1  0  0
   -6.6689  -27.2653   52.0427 C   0  0  0  1  0  0
   -7.7307  -27.1009   52.5990 O   0  0  0  1  0  0
   -6.2138  -28.5213   51.6631 N   0  0  0  1  0  0
   -6.8951  -29.7205   51.5219 C   0  0  0  1  0  0
   -8.3027  -29.8495   51.5614 C   0  0  0  1  0  0
   -8.8786  -31.1235   51.4095 C   0  0  0  1  0  0
   -8.0454  -32.2431   51.2220 C   0  0  0  1  0  0
   -6.6896  -32.1196   51.1838 N   0  0  0  1  0  0
   -6.1241  -30.8920   51.3283 C   0  0  0  1  0  0
   -6.6286  -25.1859   50.7329 C   0  0  0  1  0  0
   -6.2851  -23.6753   50.7191 C   0  0  0  1  0  0
   -4.8538  -23.5191   51.0601 N   0  0  0  1  0  0
   -3.8614  -23.2494   50.1164 C   0  0  0  1  0  0
   -2.5219  -23.0103   50.4994 C   0  0  0  1  0  0
   -1.5002  -22.9855   49.5344 C   0  0  0  1  0  0
   -1.8102  -23.1716   48.1737 C   0  0  0  1  0  0
   -0.7255  -23.3241   47.1383 C   0  0  0  1  0  0
   -0.4139  -24.7977   46.8880 C   0  0  0  1  0  0
   -0.6064  -25.2649   45.7888 O   0  0  0  1  0  0
    0.0478  -25.5577   47.8838 O   0  0  0  1  0  0
   -0.6809  -22.3485   45.9728 C   0  0  0  1  0  0
    0.4010  -22.3092   47.0256 C   0  0  0  1  0  0
   -3.1527  -23.2522   47.7745 C   0  0  0  1  0  0
   -4.1695  -23.2732   48.7353 C   0  0  0  1  0  0
   -4.5701  -23.8865   52.4815 C   0  0  0  1  0  0
   -5.4712  -25.0866   52.9082 C   0  0  0  1  0  0
   -4.3104  -29.6219   54.4682 H   0  0
   -3.0847  -29.8743   53.2098 H   0  0
   -4.7994  -29.6741   52.7508 H   0  0
   -4.7222  -27.3648   53.6691 H   0  0
   -1.7682  -27.9084   54.0980 H   0  0
   -2.9940  -27.6561   55.3564 H   0  0
   -2.5465  -26.3098   54.2708 H   0  0
   -1.5527  -28.3173   52.0244 H   0  0
   -0.9599  -27.7660   49.6793 H   0  0
   -2.6027  -26.5773   48.2346 H   0  0
   -4.7855  -25.8700   49.1608 H   0  0
   -5.1677  -28.5717   51.4441 H   0  0
   -8.9334  -28.9726   51.7077 H   0  0
   -9.9616  -31.2434   51.4367 H   0  0
   -8.4949  -33.2292   51.1050 H   0  0
   -5.0380  -30.8065   51.2939 H   0  0
   -7.6805  -25.2989   50.9951 H   0  0
   -6.5148  -25.5759   49.7214 H   0  0
   -6.8955  -23.1536   51.4562 H   0  0
   -6.4711  -23.2669   49.7258 H   0  0
   -2.2799  -22.8442   51.5491 H   0  0
   -0.4667  -22.8220   49.8399 H   0  0
   -0.6710  -25.4667   48.6437 H   0  0
   -1.3975  -21.5374   46.1021 H   0  0
   -0.3358  -22.8328   45.0593 H   0  0
    1.3227  -22.7717   46.6725 H   0  0
    0.2603  -21.4776   47.7161 H   0  0
   -3.4038  -23.2985   46.7148 H   0  0
   -5.2112  -23.3083   48.4164 H   0  0
   -4.7766  -23.0320   53.1259 H   0  0
   -3.5217  -24.1678   52.5809 H   0  0
   -4.9792  -25.6304   53.7146 H   0  0
   -6.4176  -24.7021   53.2885 H   0  0
  1  2  1  0
  2  3  1  0
  2  4  1  0
  4  5  2  0
  4  9  1  0
  5  6  1  0
  6  7  2  0
  7  8  1  0
  8  9  2  0
  9 10  1  0
 10 11  1  0
 10 20  1  0
 10 36  1  0
 11 12  2  0
 11 13  1  0
 13 14  1  0
 14 15  2  0
 14 19  1  0
 15 16  1  0
 16 17  2  0
 17 18  1  0
 18 19  2  0
 20 21  1  0
 21 22  1  0
 22 23  1  0
 22 35  1  0
 23 24  2  0
 23 34  1  0
 24 25  1  0
 25 26  2  0
 26 27  1  0
 26 33  1  0
 27 28  1  0
 27 31  1  0
 27 32  1  0
 28 29  2  0
 28 30  1  0
 31 32  1  0
 33 34  2  0
 35 36  1  0
  1 37  1  0
  1 38  1  0
  1 39  1  0
  2 40  1  0
  3 41  1  0
  3 42  1  0
  3 43  1  0
  5 44  1  0
  6 45  1  0
  7 46  1  0
  8 47  1  0
 13 48  1  0
 15 49  1  0
 16 50  1  0
 17 51  1  0
 19 52  1  0
 20 53  1  0
 20 54  1  0
 21 55  1  0
 21 56  1  0
 24 57  1  0
 25 58  1  0
 30 59  1  0
 31 60  1  0
 31 61  1  0
 32 62  1  0
 32 63  1  0
 33 64  1  0
 34 65  1  0
 35 66  1  0
 35 67  1  0
 36 68  1  0
 36 69  1  0
M  END
> <Name>
Molecule

> <AbsoluteEnergy>
73.4745

> <Clean Energy>
200.984

> <ConfNumber>
59

> <MOL_NUMBER>
2

> <RelativeEnergy>
11.9713

> <POSE_NUMBER>
55

> <LibDockScore>
112.0587

> <HotSpots>
-9.53,-30.12,52.78,A,62,16
-6.53,-23.32,50.38,A,45,21
0.27,-22.52,46.78,A,23,32

$$$$
Molecule
  SciTegic05072616053D

 69 73  0  0  0  0            999 V2000
   -5.7500  -22.0675   46.0260 C   0  0  0  1  0  0
   -4.8707  -23.1262   46.7200 C   0  0  0  1  0  0
   -4.9341  -24.4841   45.9955 C   0  0  0  1  0  0
   -3.4452  -22.6553   46.9107 C   0  0  0  1  0  0
   -2.8224  -22.0766   45.7854 C   0  0  0  1  0  0
   -1.5144  -21.5859   45.8500 C   0  0  0  1  0  0
   -0.8017  -21.6676   47.0488 C   0  0  0  1  0  0
   -1.3949  -22.2502   48.1778 C   0  0  0  1  0  0
   -2.7167  -22.7689   48.1403 C   0  0  0  1  0  0
   -3.3155  -23.4231   49.3914 C   0  0  0  1  0  0
   -3.3783  -24.9526   49.2272 C   0  0  0  1  0  0
   -4.4561  -25.5010   49.2761 O   0  0  0  1  0  0
   -2.2135  -25.6873   49.0361 N   0  0  0  1  0  0
   -2.0456  -27.0602   49.2136 C   0  0  0  1  0  0
   -0.9292  -27.6996   48.6248 C   0  0  0  1  0  0
   -0.7379  -29.0799   48.8161 C   0  0  0  1  0  0
   -1.6601  -29.8025   49.5970 C   0  0  0  1  0  0
   -2.7361  -29.1924   50.1665 N   0  0  0  1  0  0
   -2.9337  -27.8606   49.9799 C   0  0  0  1  0  0
   -4.7226  -22.7805   49.6948 C   0  0  0  1  0  0
   -5.1706  -22.8334   51.1787 C   0  0  0  1  0  0
   -4.5806  -24.0331   51.8321 N   0  0  0  1  0  0
   -5.3321  -25.1759   52.1432 C   0  0  0  1  0  0
   -6.6912  -25.2882   51.7633 C   0  0  0  1  0  0
   -7.3746  -26.5107   51.8765 C   0  0  0  1  0  0
   -6.7200  -27.6437   52.3923 C   0  0  0  1  0  0
   -7.3989  -28.9953   52.3591 C   0  0  0  1  0  0
   -8.5137  -29.1778   53.3848 C   0  0  0  1  0  0
   -8.3380  -28.8326   54.5364 O   0  0  0  1  0  0
   -9.6655  -29.7326   52.9917 O   0  0  0  1  0  0
   -6.6166  -30.2175   51.8906 C   0  0  0  1  0  0
   -7.6360  -29.5858   50.9766 C   0  0  0  1  0  0
   -5.4195  -27.5072   52.9066 C   0  0  0  1  0  0
   -4.7430  -26.2826   52.8037 C   0  0  0  1  0  0
   -3.0903  -23.9232   51.9515 C   0  0  0  1  0  0
   -2.4905  -23.1958   50.7112 C   0  0  0  1  0  0
   -6.7790  -22.4267   46.0133 H   0  0
   -5.4042  -21.9497   44.9990 H   0  0
   -5.6906  -21.1158   46.5541 H   0  0
   -5.2853  -23.2725   47.7174 H   0  0
   -4.5957  -24.3446   44.9688 H   0  0
   -5.9705  -24.8216   45.9831 H   0  0
   -4.3061  -25.2171   46.5020 H   0  0
   -3.3717  -22.0105   44.8463 H   0  0
   -1.0527  -21.1414   44.9683 H   0  0
    0.2149  -21.2787   47.1064 H   0  0
   -0.8279  -22.3064   49.1070 H   0  0
   -1.3514  -25.1392   48.7179 H   0  0
   -0.2215  -27.1259   48.0264 H   0  0
    0.1158  -29.5851   48.3643 H   0  0
   -1.5098  -30.8714   49.7487 H   0  0
   -3.8053  -27.3900   50.4349 H   0  0
   -4.7062  -21.7387   49.3745 H   0  0
   -5.4748  -23.2841   49.0876 H   0  0
   -4.8296  -21.9352   51.6936 H   0  0
   -6.2579  -22.8908   51.2293 H   0  0
   -7.2151  -24.4137   51.3774 H   0  0
   -8.4162  -26.5813   51.5633 H   0  0
   -9.3982  -30.6624   52.5835 H   0  0
   -6.9956  -31.1326   52.3456 H   0  0
   -5.5989  -29.9532   51.6032 H   0  0
   -7.1629  -28.9860   50.1991 H   0  0
   -8.5595  -30.1639   50.9424 H   0  0
   -4.9342  -28.3565   53.3876 H   0  0
   -3.7487  -26.1808   53.2386 H   0  0
   -2.8415  -23.3627   52.8526 H   0  0
   -2.6594  -24.9216   52.0262 H   0  0
   -1.4707  -23.5478   50.5555 H   0  0
   -2.4423  -22.1269   50.9192 H   0  0
  1  2  1  0
  2  3  1  0
  2  4  1  0
  4  5  2  0
  4  9  1  0
  5  6  1  0
  6  7  2  0
  7  8  1  0
  8  9  2  0
  9 10  1  0
 10 11  1  0
 10 20  1  0
 10 36  1  0
 11 12  2  0
 11 13  1  0
 13 14  1  0
 14 15  2  0
 14 19  1  0
 15 16  1  0
 16 17  2  0
 17 18  1  0
 18 19  2  0
 20 21  1  0
 21 22  1  0
 22 23  1  0
 22 35  1  0
 23 24  2  0
 23 34  1  0
 24 25  1  0
 25 26  2  0
 26 27  1  0
 26 33  1  0
 27 28  1  0
 27 31  1  0
 27 32  1  0
 28 29  2  0
 28 30  1  0
 31 32  1  0
 33 34  2  0
 35 36  1  0
  1 37  1  0
  1 38  1  0
  1 39  1  0
  2 40  1  0
  3 41  1  0
  3 42  1  0
  3 43  1  0
  5 44  1  0
  6 45  1  0
  7 46  1  0
  8 47  1  0
 13 48  1  0
 15 49  1  0
 16 50  1  0
 17 51  1  0
 19 52  1  0
 20 53  1  0
 20 54  1  0
 21 55  1  0
 21 56  1  0
 24 57  1  0
 25 58  1  0
 30 59  1  0
 31 60  1  0
 31 61  1  0
 32 62  1  0
 32 63  1  0
 33 64  1  0
 34 65  1  0
 35 66  1  0
 35 67  1  0
 36 68  1  0
 36 69  1  0
M  END
> <Name>
Molecule

> <AbsoluteEnergy>
70.0966

> <Clean Energy>
200.984

> <ConfNumber>
30

> <MOL_NUMBER>
2

> <RelativeEnergy>
8.59345

> <POSE_NUMBER>
56

> <LibDockScore>
111.7609

> <HotSpots>
-1.73,-21.72,46.78,A,24,6
-0.73,-30.12,49.98,A,38,17
-6.53,-30.72,51.78,A,56,31

$$$$
Molecule
  SciTegic05072616053D

 69 73  0  0  0  0            999 V2000
   -1.7204  -24.2899   48.4241 C   0  0  0  1  0  0
   -1.1927  -25.5428   49.1466 C   0  0  0  1  0  0
   -0.5223  -26.5201   48.1622 C   0  0  0  1  0  0
   -0.2854  -25.1861   50.3016 C   0  0  0  1  0  0
    0.9127  -24.5108   49.9768 C   0  0  0  1  0  0
    1.8359  -24.1488   50.9619 C   0  0  0  1  0  0
    1.5777  -24.4618   52.2978 C   0  0  0  1  0  0
    0.3922  -25.1214   52.6464 C   0  0  0  1  0  0
   -0.5714  -25.4913   51.6722 C   0  0  0  1  0  0
   -1.8612  -26.1942   52.1167 C   0  0  0  1  0  0
   -3.0888  -25.6527   51.3651 C   0  0  0  1  0  0
   -3.8041  -26.4294   50.7730 O   0  0  0  1  0  0
   -3.3685  -24.2939   51.3800 N   0  0  0  1  0  0
   -4.5277  -23.6627   50.9351 C   0  0  0  1  0  0
   -5.7595  -24.3364   50.7496 C   0  0  0  1  0  0
   -6.8756  -23.6242   50.2850 C   0  0  0  1  0  0
   -6.7578  -22.2478   50.0245 C   0  0  0  1  0  0
   -5.5804  -21.5896   50.2162 N   0  0  0  1  0  0
   -4.4871  -22.2735   50.6619 C   0  0  0  1  0  0
   -1.6986  -27.7479   51.9431 C   0  0  0  1  0  0
   -2.5182  -28.6275   52.9216 C   0  0  0  1  0  0
   -3.7612  -27.9406   53.3659 N   0  0  0  1  0  0
   -5.0248  -28.4728   53.1344 C   0  0  0  1  0  0
   -5.2053  -29.8654   52.9774 C   0  0  0  1  0  0
   -6.4793  -30.3978   52.7187 C   0  0  0  1  0  0
   -7.5954  -29.5486   52.6198 C   0  0  0  1  0  0
   -8.9629  -30.1177   52.3332 C   0  0  0  1  0  0
   -9.2001  -30.3666   50.8529 C   0  0  0  1  0  0
   -9.9766  -29.6576   50.2534 O   0  0  0  1  0  0
   -8.5458  -31.3575   50.2513 O   0  0  0  1  0  0
  -10.1456  -29.6763   53.1812 C   0  0  0  1  0  0
   -9.5909  -31.0708   53.3377 C   0  0  0  1  0  0
   -7.4286  -28.1625   52.7835 C   0  0  0  1  0  0
   -6.1563  -27.6305   53.0375 C   0  0  0  1  0  0
   -3.5501  -26.6247   54.0403 C   0  0  0  1  0  0
   -2.2009  -25.9918   53.6330 C   0  0  0  1  0  0
   -2.4433  -24.6011   47.6700 H   0  0
   -0.8844  -23.7943   47.9306 H   0  0
   -2.1907  -23.6111   49.1355 H   0  0
   -2.0527  -26.0586   49.5738 H   0  0
    0.3044  -26.0072   47.6707 H   0  0
   -1.2545  -26.8140   47.4101 H   0  0
   -0.1554  -27.3997   48.6911 H   0  0
    1.1215  -24.2668   48.9352 H   0  0
    2.7520  -23.6252   50.6887 H   0  0
    2.2988  -24.1928   53.0697 H   0  0
    0.2047  -25.3569   53.6940 H   0  0
   -2.6062  -23.6578   51.7791 H   0  0
   -5.8400  -25.4016   50.9664 H   0  0
   -7.8261  -24.1339   50.1274 H   0  0
   -7.6254  -21.6964   49.6621 H   0  0
   -3.5524  -21.7334   50.8126 H   0  0
   -0.6441  -28.0015   52.0520 H   0  0
   -1.9775  -28.0139   50.9235 H   0  0
   -1.9074  -28.8594   53.7941 H   0  0
   -2.7840  -29.5618   52.4270 H   0  0
   -4.3476  -30.5332   53.0578 H   0  0
   -6.6030  -31.4736   52.5942 H   0  0
   -8.7864  -32.2182   50.8026 H   0  0
  -11.0715  -29.6738   52.6061 H   0  0
   -9.8315  -29.0244   53.9963 H   0  0
   -8.9817  -31.1629   54.2369 H   0  0
  -10.2206  -31.8120   52.8455 H   0  0
   -8.2907  -27.4993   52.7128 H   0  0
   -6.0381  -26.5541   53.1618 H   0  0
   -3.5665  -26.7681   55.1207 H   0  0
   -4.3600  -25.9482   53.7672 H   0  0
   -2.2315  -24.9243   53.8511 H   0  0
   -1.4073  -26.4329   54.2361 H   0  0
  1  2  1  0
  2  3  1  0
  2  4  1  0
  4  5  2  0
  4  9  1  0
  5  6  1  0
  6  7  2  0
  7  8  1  0
  8  9  2  0
  9 10  1  0
 10 11  1  0
 10 20  1  0
 10 36  1  0
 11 12  2  0
 11 13  1  0
 13 14  1  0
 14 15  2  0
 14 19  1  0
 15 16  1  0
 16 17  2  0
 17 18  1  0
 18 19  2  0
 20 21  1  0
 21 22  1  0
 22 23  1  0
 22 35  1  0
 23 24  2  0
 23 34  1  0
 24 25  1  0
 25 26  2  0
 26 27  1  0
 26 33  1  0
 27 28  1  0
 27 31  1  0
 27 32  1  0
 28 29  2  0
 28 30  1  0
 31 32  1  0
 33 34  2  0
 35 36  1  0
  1 37  1  0
  1 38  1  0
  1 39  1  0
  2 40  1  0
  3 41  1  0
  3 42  1  0
  3 43  1  0
  5 44  1  0
  6 45  1  0
  7 46  1  0
  8 47  1  0
 13 48  1  0
 15 49  1  0
 16 50  1  0
 17 51  1  0
 19 52  1  0
 20 53  1  0
 20 54  1  0
 21 55  1  0
 21 56  1  0
 24 57  1  0
 25 58  1  0
 30 59  1  0
 31 60  1  0
 31 61  1  0
 32 62  1  0
 32 63  1  0
 33 64  1  0
 34 65  1  0
 35 66  1  0
 35 67  1  0
 36 68  1  0
 36 69  1  0
M  END
> <Name>
Molecule

> <AbsoluteEnergy>
63.7878

> <Clean Energy>
200.984

> <ConfNumber>
4

> <MOL_NUMBER>
2

> <RelativeEnergy>
2.28466

> <POSE_NUMBER>
57

> <LibDockScore>
111.5087

> <HotSpots>
0.87,-24.32,52.78,A,63,7
-4.73,-22.32,50.38,A,46,19
-7.93,-28.32,52.38,A,59,33

$$$$
Molecule
  SciTegic05072616053D

 69 73  0  0  0  0            999 V2000
    0.3735  -25.6291   53.0123 C   0  0  0  1  0  0
    0.1600  -24.1557   52.6157 C   0  0  0  1  0  0
    0.7284  -23.1963   53.6792 C   0  0  0  1  0  0
    0.6945  -23.8617   51.2320 C   0  0  0  1  0  0
    2.0984  -23.8710   51.0915 C   0  0  0  1  0  0
    2.7076  -23.5745   49.8699 C   0  0  0  1  0  0
    1.9193  -23.2609   48.7597 C   0  0  0  1  0  0
    0.5217  -23.2666   48.8687 C   0  0  0  1  0  0
   -0.1253  -23.5861   50.0887 C   0  0  0  1  0  0
   -1.6543  -23.6373   50.1401 C   0  0  0  1  0  0
   -2.1127  -25.0946   50.3543 C   0  0  0  1  0  0
   -2.7650  -25.3814   51.3320 O   0  0  0  1  0  0
   -1.7724  -26.0725   49.4283 N   0  0  0  1  0  0
   -1.6820  -27.4411   49.6545 C   0  0  0  1  0  0
   -2.3108  -28.0836   50.7469 C   0  0  0  1  0  0
   -2.1683  -29.4712   50.9086 C   0  0  0  1  0  0
   -1.4120  -30.2009   49.9755 C   0  0  0  1  0  0
   -0.8115  -29.5885   48.9166 N   0  0  0  1  0  0
   -0.9407  -28.2402   48.7513 C   0  0  0  1  0  0
   -2.3708  -23.1722   48.8136 C   0  0  0  1  0  0
   -3.9222  -23.2885   48.8744 C   0  0  0  1  0  0
   -4.3780  -23.1125   50.2869 N   0  0  0  1  0  0
   -5.2572  -23.9836   50.9333 C   0  0  0  1  0  0
   -6.3009  -24.6281   50.2278 C   0  0  0  1  0  0
   -6.9506  -25.7402   50.7853 C   0  0  0  1  0  0
   -6.5957  -26.1865   52.0686 C   0  0  0  1  0  0
   -7.0882  -27.5175   52.5740 C   0  0  0  1  0  0
   -5.9249  -28.4751   52.8572 C   0  0  0  1  0  0
   -5.8477  -29.5062   52.2312 O   0  0  0  1  0  0
   -4.9990  -28.1706   53.7769 O   0  0  0  1  0  0
   -8.4006  -28.0668   52.0391 C   0  0  0  1  0  0
   -8.3140  -27.5904   53.4699 C   0  0  0  1  0  0
   -5.7394  -25.4060   52.8622 C   0  0  0  1  0  0
   -5.0801  -24.3057   52.3009 C   0  0  0  1  0  0
   -3.5957  -22.0653   50.9841 C   0  0  0  1  0  0
   -2.1788  -22.6387   51.2508 C   0  0  0  1  0  0
   -0.1218  -25.8077   53.9667 H   0  0
    1.4426  -25.8064   53.1294 H   0  0
   -0.0346  -26.2914   52.2488 H   0  0
   -0.9153  -23.9817   52.5751 H   0  0
    1.7946  -23.3932   53.7909 H   0  0
    0.2302  -23.3945   54.6282 H   0  0
    0.5680  -22.1602   53.3812 H   0  0
    2.7199  -24.1144   51.9532 H   0  0
    3.7941  -23.5877   49.7831 H   0  0
    2.3909  -23.0119   47.8091 H   0  0
   -0.0814  -23.0196   47.9950 H   0  0
   -1.5570  -25.7367   48.4355 H   0  0
   -2.9015  -27.5058   51.4578 H   0  0
   -2.6401  -29.9779   51.7505 H   0  0
   -1.3036  -31.2782   50.1013 H   0  0
   -0.4584  -27.7639   47.8977 H   0  0
   -2.0048  -23.7753   47.9827 H   0  0
   -2.1028  -22.1351   48.6120 H   0  0
   -4.3696  -22.5155   48.2496 H   0  0
   -4.2286  -24.2705   48.5140 H   0  0
   -6.6015  -24.2592   49.2472 H   0  0
   -7.7290  -26.2564   50.2234 H   0  0
   -5.5499  -28.0042   54.6552 H   0  0
   -8.3832  -29.1548   51.9760 H   0  0
   -8.9083  -27.3411   51.4037 H   0  0
   -8.7764  -26.6114   53.5963 H   0  0
   -8.2496  -28.4248   54.1683 H   0  0
   -5.5884  -25.6561   53.9123 H   0  0
   -4.4259  -23.6927   52.9209 H   0  0
   -4.0744  -21.8155   51.9310 H   0  0
   -3.5204  -21.1800   50.3527 H   0  0
   -1.4773  -21.8089   51.3373 H   0  0
   -2.1860  -23.1545   52.2110 H   0  0
  1  2  1  0
  2  3  1  0
  2  4  1  0
  4  5  2  0
  4  9  1  0
  5  6  1  0
  6  7  2  0
  7  8  1  0
  8  9  2  0
  9 10  1  0
 10 11  1  0
 10 20  1  0
 10 36  1  0
 11 12  2  0
 11 13  1  0
 13 14  1  0
 14 15  2  0
 14 19  1  0
 15 16  1  0
 16 17  2  0
 17 18  1  0
 18 19  2  0
 20 21  1  0
 21 22  1  0
 22 23  1  0
 22 35  1  0
 23 24  2  0
 23 34  1  0
 24 25  1  0
 25 26  2  0
 26 27  1  0
 26 33  1  0
 27 28  1  0
 27 31  1  0
 27 32  1  0
 28 29  2  0
 28 30  1  0
 31 32  1  0
 33 34  2  0
 35 36  1  0
  1 37  1  0
  1 38  1  0
  1 39  1  0
  2 40  1  0
  3 41  1  0
  3 42  1  0
  3 43  1  0
  5 44  1  0
  6 45  1  0
  7 46  1  0
  8 47  1  0
 13 48  1  0
 15 49  1  0
 16 50  1  0
 17 51  1  0
 19 52  1  0
 20 53  1  0
 20 54  1  0
 21 55  1  0
 21 56  1  0
 24 57  1  0
 25 58  1  0
 30 59  1  0
 31 60  1  0
 31 61  1  0
 32 62  1  0
 32 63  1  0
 33 64  1  0
 34 65  1  0
 35 66  1  0
 35 67  1  0
 36 68  1  0
 36 69  1  0
M  END
> <Name>
Molecule

> <AbsoluteEnergy>
72.818

> <Clean Energy>
200.984

> <ConfNumber>
55

> <MOL_NUMBER>
2

> <RelativeEnergy>
11.3148

> <POSE_NUMBER>
58

> <LibDockScore>
111.4754

> <HotSpots>
0.47,-23.32,53.78,A,67,3
2.67,-22.92,49.98,A,39,6
-7.93,-28.32,52.38,A,59,31

$$$$
Molecule
  SciTegic05072616053D

 69 73  0  0  0  0            999 V2000
   -1.8523  -24.0078   48.0612 C   0  0  0  1  0  0
   -1.1496  -25.2644   48.6065 C   0  0  0  1  0  0
   -0.5613  -26.1193   47.4678 C   0  0  0  1  0  0
   -0.1152  -24.9210   49.6536 C   0  0  0  1  0  0
    1.0630  -24.2911   49.1932 C   0  0  0  1  0  0
    2.0955  -23.9455   50.0697 C   0  0  0  1  0  0
    1.9690  -24.2296   51.4308 C   0  0  0  1  0  0
    0.8064  -24.8439   51.9133 C   0  0  0  1  0  0
   -0.2654  -25.1960   51.0521 C   0  0  0  1  0  0
   -1.5231  -25.8485   51.6416 C   0  0  0  1  0  0
   -2.7920  -25.4141   50.8891 C   0  0  0  1  0  0
   -3.4721  -26.2578   50.3496 O   0  0  0  1  0  0
   -3.1477  -24.0739   50.8437 N   0  0  0  1  0  0
   -4.3949  -23.5388   50.5300 C   0  0  0  1  0  0
   -5.6014  -24.2761   50.6092 C   0  0  0  1  0  0
   -6.8135  -23.6608   50.2614 C   0  0  0  1  0  0
   -6.8137  -22.3155   49.8533 C   0  0  0  1  0  0
   -5.6589  -21.5951   49.7904 N   0  0  0  1  0  0
   -4.4738  -22.1851   50.1205 C   0  0  0  1  0  0
   -1.3473  -27.4104   51.6534 C   0  0  0  1  0  0
   -2.1078  -28.1685   52.7713 C   0  0  0  1  0  0
   -3.3379  -27.4417   53.1870 N   0  0  0  1  0  0
   -4.6036  -28.0085   53.0842 C   0  0  0  1  0  0
   -4.7870  -29.4011   53.2385 C   0  0  0  1  0  0
   -6.0631  -29.9740   53.1093 C   0  0  0  1  0  0
   -7.1783  -29.1645   52.8310 C   0  0  0  1  0  0
   -8.5482  -29.7791   52.6831 C   0  0  0  1  0  0
   -8.8121  -30.3019   51.2808 C   0  0  0  1  0  0
   -9.5125  -29.6566   50.5336 O   0  0  0  1  0  0
   -8.2643  -31.4563   50.9078 O   0  0  0  1  0  0
   -9.7169  -29.1879   53.4561 C   0  0  0  1  0  0
   -9.1524  -30.5274   53.8607 C   0  0  0  1  0  0
   -7.0086  -27.7768   52.6848 C   0  0  0  1  0  0
   -5.7342  -27.2053   52.8096 C   0  0  0  1  0  0
   -3.1136  -26.0508   53.6829 C   0  0  0  1  0  0
   -1.7939  -25.4625   53.1360 C   0  0  0  1  0  0
   -2.6516  -24.3196   47.3889 H   0  0
   -1.1268  -23.4186   47.5002 H   0  0
   -2.2617  -23.4162   48.8801 H   0  0
   -1.9066  -25.8709   49.1037 H   0  0
    0.1542  -25.5138   46.9114 H   0  0
   -1.3706  -26.4148   46.8001 H   0  0
   -0.0685  -27.0033   47.8724 H   0  0
    1.1690  -24.0699   48.1312 H   0  0
    2.9941  -23.4571   49.6928 H   0  0
    2.7752  -23.9733   52.1181 H   0  0
    0.7225  -25.0573   52.9789 H   0  0
   -2.3755  -23.3707   51.0763 H   0  0
   -5.5885  -25.3151   50.9383 H   0  0
   -7.7473  -24.2213   50.3073 H   0  0
   -7.7560  -21.8395   49.5819 H   0  0
   -3.5583  -21.5958   50.0674 H   0  0
   -0.2854  -27.6401   51.7417 H   0  0
   -1.6700  -27.8029   50.6891 H   0  0
   -1.4536  -28.2857   53.6352 H   0  0
   -2.3836  -29.1589   52.4091 H   0  0
   -3.9299  -30.0370   53.4599 H   0  0
   -6.1891  -31.0505   53.2253 H   0  0
   -8.5914  -32.1563   51.6188 H   0  0
  -10.6535  -29.2947   52.9089 H   0  0
   -9.3907  -28.3941   54.1281 H   0  0
   -8.5259  -30.4482   54.7492 H   0  0
   -9.7875  -31.3487   53.5288 H   0  0
   -7.8701  -27.1432   52.4738 H   0  0
   -5.6137  -26.1282   52.6934 H   0  0
   -3.0773  -26.0594   54.7723 H   0  0
   -3.9447  -25.4198   53.3678 H   0  0
   -1.8290  -24.3765   53.2219 H   0  0
   -0.9668  -25.8193   53.7498 H   0  0
  1  2  1  0
  2  3  1  0
  2  4  1  0
  4  5  2  0
  4  9  1  0
  5  6  1  0
  6  7  2  0
  7  8  1  0
  8  9  2  0
  9 10  1  0
 10 11  1  0
 10 20  1  0
 10 36  1  0
 11 12  2  0
 11 13  1  0
 13 14  1  0
 14 15  2  0
 14 19  1  0
 15 16  1  0
 16 17  2  0
 17 18  1  0
 18 19  2  0
 20 21  1  0
 21 22  1  0
 22 23  1  0
 22 35  1  0
 23 24  2  0
 23 34  1  0
 24 25  1  0
 25 26  2  0
 26 27  1  0
 26 33  1  0
 27 28  1  0
 27 31  1  0
 27 32  1  0
 28 29  2  0
 28 30  1  0
 31 32  1  0
 33 34  2  0
 35 36  1  0
  1 37  1  0
  1 38  1  0
  1 39  1  0
  2 40  1  0
  3 41  1  0
  3 42  1  0
  3 43  1  0
  5 44  1  0
  6 45  1  0
  7 46  1  0
  8 47  1  0
 13 48  1  0
 15 49  1  0
 16 50  1  0
 17 51  1  0
 19 52  1  0
 20 53  1  0
 20 54  1  0
 21 55  1  0
 21 56  1  0
 24 57  1  0
 25 58  1  0
 30 59  1  0
 31 60  1  0
 31 61  1  0
 32 62  1  0
 32 63  1  0
 33 64  1  0
 34 65  1  0
 35 66  1  0
 35 67  1  0
 36 68  1  0
 36 69  1  0
M  END
> <Name>
Molecule

> <AbsoluteEnergy>
63.7878

> <Clean Energy>
200.984

> <ConfNumber>
4

> <MOL_NUMBER>
2

> <RelativeEnergy>
2.28466

> <POSE_NUMBER>
59

> <LibDockScore>
111.2468

> <HotSpots>
2.67,-23.92,48.98,A,32,6
1.67,-24.32,50.98,A,50,8
-3.33,-21.92,50.38,A,47,19

$$$$
Molecule
  SciTegic05072616053D

 69 73  0  0  0  0            999 V2000
   -1.3991  -26.6179   47.6576 C   0  0  0  1  0  0
   -1.9148  -25.7005   48.7819 C   0  0  0  1  0  0
   -2.6436  -24.4649   48.2223 C   0  0  0  1  0  0
   -0.8205  -25.3189   49.7526 C   0  0  0  1  0  0
    0.2721  -24.6007   49.2211 C   0  0  0  1  0  0
    1.3414  -24.1994   50.0294 C   0  0  0  1  0  0
    1.3342  -24.5118   51.3912 C   0  0  0  1  0  0
    0.2600  -25.2233   51.9425 C   0  0  0  1  0  0
   -0.8383  -25.6408   51.1485 C   0  0  0  1  0  0
   -1.9962  -26.4098   51.7930 C   0  0  0  1  0  0
   -3.3480  -25.8244   51.3413 C   0  0  0  1  0  0
   -4.2222  -26.5749   50.9701 O   0  0  0  1  0  0
   -3.5537  -24.4483   51.3578 N   0  0  0  1  0  0
   -4.6838  -23.7538   50.9354 C   0  0  0  1  0  0
   -5.9466  -24.3671   50.7492 C   0  0  0  1  0  0
   -7.0425  -23.5920   50.3438 C   0  0  0  1  0  0
   -6.8690  -22.2157   50.1142 C   0  0  0  1  0  0
   -5.6565  -21.6170   50.2853 N   0  0  0  1  0  0
   -4.5850  -22.3604   50.6905 C   0  0  0  1  0  0
   -1.8315  -27.9468   51.4612 C   0  0  0  1  0  0
   -2.3064  -28.9248   52.5624 C   0  0  0  1  0  0
   -3.4987  -28.3567   53.2270 N   0  0  0  1  0  0
   -4.7616  -28.9018   53.0420 C   0  0  0  1  0  0
   -5.8971  -28.1784   53.4578 C   0  0  0  1  0  0
   -7.1812  -28.6238   53.1365 C   0  0  0  1  0  0
   -7.3653  -29.8330   52.4423 C   0  0  0  1  0  0
   -8.7650  -30.2512   52.0467 C   0  0  0  1  0  0
   -9.7266  -30.3654   53.2271 C   0  0  0  1  0  0
   -9.8495  -29.3971   53.9424 O   0  0  0  1  0  0
  -10.4079  -31.4946   53.4502 O   0  0  0  1  0  0
   -9.0017  -31.0612   50.7789 C   0  0  0  1  0  0
   -9.3287  -29.5899   50.7971 C   0  0  0  1  0  0
   -6.2421  -30.6204   52.1178 C   0  0  0  1  0  0
   -4.9455  -30.1531   52.4074 C   0  0  0  1  0  0
   -3.2339  -27.0991   53.9869 C   0  0  0  1  0  0
   -2.0445  -26.3206   53.3603 C   0  0  0  1  0  0
   -0.7168  -26.0449   47.0297 H   0  0
   -2.2493  -26.9374   47.0550 H   0  0
   -0.8874  -27.4848   48.0757 H   0  0
   -2.6481  -26.2756   49.3473 H   0  0
   -3.4823  -24.8043   47.6145 H   0  0
   -1.9498  -23.9118   47.5892 H   0  0
   -2.9996  -23.8306   49.0341 H   0  0
    0.2831  -24.3537   48.1595 H   0  0
    2.1758  -23.6458   49.5988 H   0  0
    2.1648  -24.2019   52.0254 H   0  0
    0.2689  -25.4613   53.0062 H   0  0
   -2.7495  -23.8548   51.7397 H   0  0
   -6.0661  -25.4369   50.9203 H   0  0
   -8.0210  -24.0527   50.2078 H   0  0
   -7.7206  -21.6159   49.7932 H   0  0
   -3.6231  -21.8671   50.8302 H   0  0
   -0.7810  -28.1474   51.2508 H   0  0
   -2.3799  -28.1653   50.5449 H   0  0
   -1.5121  -29.0632   53.2959 H   0  0
   -2.5625  -29.8840   52.1125 H   0  0
   -5.7721  -27.2626   54.0356 H   0  0
   -8.0478  -28.0294   53.4261 H   0  0
   -9.6660  -32.2345   53.5180 H   0  0
   -9.8993  -31.6744   50.8583 H   0  0
   -8.0682  -31.2601   50.2525 H   0  0
   -8.5707  -29.0023   50.2791 H   0  0
  -10.4011  -29.4165   50.8865 H   0  0
   -6.3772  -31.5919   51.6423 H   0  0
   -4.0790  -30.7585   52.1413 H   0  0
   -2.9973  -27.3455   55.0220 H   0  0
   -4.1251  -26.4718   53.9673 H   0  0
   -2.1155  -25.2732   53.6537 H   0  0
   -1.1127  -26.7148   53.7657 H   0  0
  1  2  1  0
  2  3  1  0
  2  4  1  0
  4  5  2  0
  4  9  1  0
  5  6  1  0
  6  7  2  0
  7  8  1  0
  8  9  2  0
  9 10  1  0
 10 11  1  0
 10 20  1  0
 10 36  1  0
 11 12  2  0
 11 13  1  0
 13 14  1  0
 14 15  2  0
 14 19  1  0
 15 16  1  0
 16 17  2  0
 17 18  1  0
 18 19  2  0
 20 21  1  0
 21 22  1  0
 22 23  1  0
 22 35  1  0
 23 24  2  0
 23 34  1  0
 24 25  1  0
 25 26  2  0
 26 27  1  0
 26 33  1  0
 27 28  1  0
 27 31  1  0
 27 32  1  0
 28 29  2  0
 28 30  1  0
 31 32  1  0
 33 34  2  0
 35 36  1  0
  1 37  1  0
  1 38  1  0
  1 39  1  0
  2 40  1  0
  3 41  1  0
  3 42  1  0
  3 43  1  0
  5 44  1  0
  6 45  1  0
  7 46  1  0
  8 47  1  0
 13 48  1  0
 15 49  1  0
 16 50  1  0
 17 51  1  0
 19 52  1  0
 20 53  1  0
 20 54  1  0
 21 55  1  0
 21 56  1  0
 24 57  1  0
 25 58  1  0
 30 59  1  0
 31 60  1  0
 31 61  1  0
 32 62  1  0
 32 63  1  0
 33 64  1  0
 34 65  1  0
 35 66  1  0
 35 67  1  0
 36 68  1  0
 36 69  1  0
M  END
> <Name>
Molecule

> <AbsoluteEnergy>
69.2189

> <Clean Energy>
200.984

> <ConfNumber>
26

> <MOL_NUMBER>
2

> <RelativeEnergy>
7.71574

> <POSE_NUMBER>
60

> <LibDockScore>
110.983

> <HotSpots>
2.67,-23.92,48.98,A,32,6
1.67,-24.32,50.98,A,50,8
-3.33,-21.92,50.38,A,47,19

$$$$
Molecule
  SciTegic05072616053D

 69 73  0  0  0  0            999 V2000
   -1.3648  -26.6274   47.6407 C   0  0  0  1  0  0
   -1.8888  -25.6870   48.7420 C   0  0  0  1  0  0
   -2.5977  -24.4543   48.1513 C   0  0  0  1  0  0
   -0.8055  -25.2992   49.7226 C   0  0  0  1  0  0
    0.2926  -24.5835   49.1992 C   0  0  0  1  0  0
    1.3526  -24.1771   50.0172 C   0  0  0  1  0  0
    1.3303  -24.4816   51.3806 C   0  0  0  1  0  0
    0.2504  -25.1905   51.9238 C   0  0  0  1  0  0
   -0.8388  -25.6132   51.1200 C   0  0  0  1  0  0
   -2.0035  -26.3791   51.7560 C   0  0  0  1  0  0
   -3.3504  -25.7915   51.2925 C   0  0  0  1  0  0
   -4.2232  -26.5408   50.9158 O   0  0  0  1  0  0
   -3.5531  -24.4150   51.3048 N   0  0  0  1  0  0
   -4.7023  -23.7229   50.9330 C   0  0  0  1  0  0
   -5.9780  -24.3307   50.8405 C   0  0  0  1  0  0
   -7.0916  -23.5578   50.4816 C   0  0  0  1  0  0
   -6.9235  -22.1896   50.2046 C   0  0  0  1  0  0
   -5.6990  -21.5964   50.2855 N   0  0  0  1  0  0
   -4.6096  -22.3374   50.6450 C   0  0  0  1  0  0
   -1.8391  -27.9168   51.4274 C   0  0  0  1  0  0
   -2.3250  -28.8925   52.5258 C   0  0  0  1  0  0
   -3.5215  -28.3213   53.1800 N   0  0  0  1  0  0
   -4.7840  -28.8641   52.9852 C   0  0  0  1  0  0
   -5.9235  -28.1144   53.3386 C   0  0  0  1  0  0
   -7.2026  -28.5634   53.0029 C   0  0  0  1  0  0
   -7.3792  -29.8003   52.3574 C   0  0  0  1  0  0
   -8.7717  -30.2246   51.9433 C   0  0  0  1  0  0
   -9.7495  -30.3388   53.1103 C   0  0  0  1  0  0
   -9.8556  -29.3831   53.8449 O   0  0  0  1  0  0
  -10.4624  -31.4544   53.3013 O   0  0  0  1  0  0
   -8.9876  -31.0390   50.6746 C   0  0  0  1  0  0
   -9.3199  -29.5687   50.6839 C   0  0  0  1  0  0
   -6.2550  -30.6100   52.0976 C   0  0  0  1  0  0
   -4.9623  -30.1405   52.4011 C   0  0  0  1  0  0
   -3.2605  -27.0632   53.9405 C   0  0  0  1  0  0
   -2.0644  -26.2879   53.3227 C   0  0  0  1  0  0
   -0.6679  -26.0710   47.0139 H   0  0
   -2.2088  -26.9491   47.0306 H   0  0
   -0.8674  -27.4918   48.0806 H   0  0
   -2.6357  -26.2461   49.3056 H   0  0
   -3.4303  -24.7961   47.5365 H   0  0
   -1.8894  -23.9179   47.5198 H   0  0
   -2.9600  -23.8035   48.9471 H   0  0
    0.3154  -24.3425   48.1364 H   0  0
    2.1916  -23.6257   49.5928 H   0  0
    2.1535  -24.1675   52.0223 H   0  0
    0.2475  -25.4224   52.9888 H   0  0
   -2.7297  -23.8190   51.6390 H   0  0
   -6.0938  -25.3946   51.0474 H   0  0
   -8.0795  -24.0140   50.4179 H   0  0
   -7.7892  -21.5917   49.9196 H   0  0
   -3.6379  -21.8483   50.7127 H   0  0
   -0.7873  -28.1197   51.2259 H   0  0
   -2.3804  -28.1354   50.5069 H   0  0
   -1.5370  -29.0316   53.2659 H   0  0
   -2.5794  -29.8517   52.0749 H   0  0
   -5.8056  -27.1752   53.8791 H   0  0
   -8.0711  -27.9502   53.2432 H   0  0
   -9.7407  -32.2147   53.3612 H   0  0
   -9.8842  -31.6551   50.7430 H   0  0
   -8.0461  -31.2362   50.1620 H   0  0
   -8.5566  -28.9800   50.1751 H   0  0
  -10.3941  -29.3988   50.7576 H   0  0
   -6.3862  -31.6003   51.6615 H   0  0
   -4.0946  -30.7637   52.1849 H   0  0
   -3.0330  -27.3087   54.9778 H   0  0
   -4.1503  -26.4342   53.9127 H   0  0
   -2.1356  -25.2400   53.6143 H   0  0
   -1.1367  -26.6836   53.7362 H   0  0
  1  2  1  0
  2  3  1  0
  2  4  1  0
  4  5  2  0
  4  9  1  0
  5  6  1  0
  6  7  2  0
  7  8  1  0
  8  9  2  0
  9 10  1  0
 10 11  1  0
 10 20  1  0
 10 36  1  0
 11 12  2  0
 11 13  1  0
 13 14  1  0
 14 15  2  0
 14 19  1  0
 15 16  1  0
 16 17  2  0
 17 18  1  0
 18 19  2  0
 20 21  1  0
 21 22  1  0
 22 23  1  0
 22 35  1  0
 23 24  2  0
 23 34  1  0
 24 25  1  0
 25 26  2  0
 26 27  1  0
 26 33  1  0
 27 28  1  0
 27 31  1  0
 27 32  1  0
 28 29  2  0
 28 30  1  0
 31 32  1  0
 33 34  2  0
 35 36  1  0
  1 37  1  0
  1 38  1  0
  1 39  1  0
  2 40  1  0
  3 41  1  0
  3 42  1  0
  3 43  1  0
  5 44  1  0
  6 45  1  0
  7 46  1  0
  8 47  1  0
 13 48  1  0
 15 49  1  0
 16 50  1  0
 17 51  1  0
 19 52  1  0
 20 53  1  0
 20 54  1  0
 21 55  1  0
 21 56  1  0
 24 57  1  0
 25 58  1  0
 30 59  1  0
 31 60  1  0
 31 61  1  0
 32 62  1  0
 32 63  1  0
 33 64  1  0
 34 65  1  0
 35 66  1  0
 35 67  1  0
 36 68  1  0
 36 69  1  0
M  END
> <Name>
Molecule

> <AbsoluteEnergy>
69.2189

> <Clean Energy>
200.984

> <ConfNumber>
26

> <MOL_NUMBER>
2

> <RelativeEnergy>
7.71574

> <POSE_NUMBER>
61

> <LibDockScore>
110.6356

> <HotSpots>
1.67,-24.32,50.98,A,50,7
-6.53,-23.32,50.38,A,45,16
-8.53,-31.32,51.19,A,51,31

$$$$
Molecule
  SciTegic05072616053D

 69 73  0  0  0  0            999 V2000
   -3.2082  -22.3753   46.5421 C   0  0  0  1  0  0
   -1.6926  -22.1131   46.6763 C   0  0  0  1  0  0
   -1.2632  -20.7615   47.2852 C   0  0  0  1  0  0
   -0.8248  -23.2968   47.0781 C   0  0  0  1  0  0
    0.4019  -23.3753   46.3712 C   0  0  0  1  0  0
    1.2891  -24.4414   46.5330 C   0  0  0  1  0  0
    0.9684  -25.4730   47.4110 C   0  0  0  1  0  0
   -0.2186  -25.4122   48.1464 C   0  0  0  1  0  0
   -1.1221  -24.3153   48.0587 C   0  0  0  1  0  0
   -2.3265  -24.3589   49.0209 C   0  0  0  1  0  0
   -2.2090  -25.5360   50.0243 C   0  0  0  1  0  0
   -2.8428  -26.5502   49.8281 O   0  0  0  1  0  0
   -1.3896  -25.4343   51.1429 N   0  0  0  1  0  0
   -1.3660  -26.2937   52.2360 C   0  0  0  1  0  0
   -0.3831  -26.1092   53.2347 C   0  0  0  1  0  0
   -0.3529  -26.9685   54.3459 C   0  0  0  1  0  0
   -1.3054  -27.9986   54.4460 C   0  0  0  1  0  0
   -2.2592  -28.1785   53.4901 N   0  0  0  1  0  0
   -2.3006  -27.3473   52.4102 C   0  0  0  1  0  0
   -3.6509  -24.5403   48.1950 C   0  0  0  1  0  0
   -4.9206  -24.0022   48.9077 C   0  0  0  1  0  0
   -4.7803  -24.1215   50.3863 N   0  0  0  1  0  0
   -5.5061  -25.0218   51.1699 C   0  0  0  1  0  0
   -4.9767  -25.5002   52.3923 C   0  0  0  1  0  0
   -5.6416  -26.4935   53.1272 C   0  0  0  1  0  0
   -6.8616  -27.0139   52.6670 C   0  0  0  1  0  0
   -7.5379  -28.1440   53.4063 C   0  0  0  1  0  0
   -6.5535  -29.2397   53.8087 C   0  0  0  1  0  0
   -6.6514  -30.3329   53.3009 O   0  0  0  1  0  0
   -5.5971  -28.9822   54.7040 O   0  0  0  1  0  0
   -8.7092  -27.8580   54.3344 C   0  0  0  1  0  0
   -8.9546  -28.5300   53.0049 C   0  0  0  1  0  0
   -7.4422  -26.4914   51.5002 C   0  0  0  1  0  0
   -6.7692  -25.5074   50.7572 C   0  0  0  1  0  0
   -3.6917  -23.2623   50.9519 C   0  0  0  1  0  0
   -2.5162  -23.1106   49.9485 C   0  0  0  1  0  0
   -3.6034  -21.5571   45.9401 H   0  0
   -3.6215  -22.2746   47.5457 H   0  0
   -3.4347  -23.3478   46.1049 H   0  0
   -1.4472  -21.9805   45.6226 H   0  0
   -1.7351  -20.7095   48.2664 H   0  0
   -1.7171  -19.9919   46.6608 H   0  0
   -0.1810  -20.6478   47.3482 H   0  0
    0.6613  -22.5757   45.6774 H   0  0
    2.2257  -24.4657   45.9760 H   0  0
    1.6398  -26.3241   47.5244 H   0  0
   -0.4626  -26.2383   48.8143 H   0  0
   -0.7072  -24.6104   51.1650 H   0  0
    0.3471  -25.3051   53.1434 H   0  0
    0.4009  -26.8382   55.1224 H   0  0
   -1.2798  -28.6671   55.3066 H   0  0
   -3.0750  -27.4965   51.6578 H   0  0
   -3.5421  -24.0283   47.2389 H   0  0
   -3.7914  -25.6000   47.9820 H   0  0
   -5.0665  -22.9548   48.6434 H   0  0
   -5.7889  -24.5747   48.5814 H   0  0
   -4.0389  -25.0911   52.7682 H   0  0
   -5.2098  -26.8620   54.0577 H   0  0
   -6.1127  -28.6341   55.5499 H   0  0
   -8.9904  -26.8052   54.3110 H   0  0
   -8.7488  -28.5701   55.1586 H   0  0
   -9.1255  -29.6003   53.1206 H   0  0
   -9.3654  -27.8351   52.2725 H   0  0
   -8.4172  -26.8501   51.1703 H   0  0
   -7.2265  -25.1125   49.8500 H   0  0
   -4.0959  -22.2766   51.1824 H   0  0
   -3.3208  -23.7116   51.8731 H   0  0
   -1.5955  -22.9418   50.5069 H   0  0
   -2.6933  -22.2317   49.3285 H   0  0
  1  2  1  0
  2  3  1  0
  2  4  1  0
  4  5  2  0
  4  9  1  0
  5  6  1  0
  6  7  2  0
  7  8  1  0
  8  9  2  0
  9 10  1  0
 10 11  1  0
 10 20  1  0
 10 36  1  0
 11 12  2  0
 11 13  1  0
 13 14  1  0
 14 15  2  0
 14 19  1  0
 15 16  1  0
 16 17  2  0
 17 18  1  0
 18 19  2  0
 20 21  1  0
 21 22  1  0
 22 23  1  0
 22 35  1  0
 23 24  2  0
 23 34  1  0
 24 25  1  0
 25 26  2  0
 26 27  1  0
 26 33  1  0
 27 28  1  0
 27 31  1  0
 27 32  1  0
 28 29  2  0
 28 30  1  0
 31 32  1  0
 33 34  2  0
 35 36  1  0
  1 37  1  0
  1 38  1  0
  1 39  1  0
  2 40  1  0
  3 41  1  0
  3 42  1  0
  3 43  1  0
  5 44  1  0
  6 45  1  0
  7 46  1  0
  8 47  1  0
 13 48  1  0
 15 49  1  0
 16 50  1  0
 17 51  1  0
 19 52  1  0
 20 53  1  0
 20 54  1  0
 21 55  1  0
 21 56  1  0
 24 57  1  0
 25 58  1  0
 30 59  1  0
 31 60  1  0
 31 61  1  0
 32 62  1  0
 32 63  1  0
 33 64  1  0
 34 65  1  0
 35 66  1  0
 35 67  1  0
 36 68  1  0
 36 69  1  0
M  END
> <Name>
Molecule

> <AbsoluteEnergy>
78.745

> <Clean Energy>
200.984

> <ConfNumber>
94

> <MOL_NUMBER>
2

> <RelativeEnergy>
17.2418

> <POSE_NUMBER>
62

> <LibDockScore>
110.2833

> <HotSpots>
0.27,-22.52,46.78,A,23,5
-0.33,-25.52,53.19,A,64,15
-8.73,-28.12,54.38,A,70,31

$$$$
Molecule
  SciTegic05072616053D

 69 73  0  0  0  0            999 V2000
   -1.0843  -22.3365   47.1052 C   0  0  0  1  0  0
   -0.8504  -23.7818   47.5893 C   0  0  0  1  0  0
   -0.5574  -24.7237   46.4072 C   0  0  0  1  0  0
    0.2264  -23.8721   48.6500 C   0  0  0  1  0  0
    1.5016  -23.3738   48.2997 C   0  0  0  1  0  0
    2.5794  -23.4335   49.1914 C   0  0  0  1  0  0
    2.4033  -24.0099   50.4492 C   0  0  0  1  0  0
    1.1509  -24.5134   50.8161 C   0  0  0  1  0  0
    0.0243  -24.4351   49.9540 C   0  0  0  1  0  0
   -1.3360  -24.9731   50.4345 C   0  0  0  1  0  0
   -2.4514  -23.9111   50.3695 C   0  0  0  1  0  0
   -2.1755  -22.7411   50.2189 O   0  0  0  1  0  0
   -3.7731  -24.3167   50.4953 N   0  0  0  1  0  0
   -4.9289  -23.5497   50.4118 C   0  0  0  1  0  0
   -6.1463  -24.1236   50.8440 C   0  0  0  1  0  0
   -7.3300  -23.3729   50.7815 C   0  0  0  1  0  0
   -7.2868  -22.0588   50.2830 C   0  0  0  1  0  0
   -6.1197  -21.5016   49.8543 N   0  0  0  1  0  0
   -4.9616  -22.2237   49.9079 C   0  0  0  1  0  0
   -1.6530  -26.2371   49.5404 C   0  0  0  1  0  0
   -2.4657  -27.3897   50.1748 C   0  0  0  1  0  0
   -2.0591  -27.6711   51.5764 N   0  0  0  1  0  0
   -2.7422  -28.5694   52.3723 C   0  0  0  1  0  0
   -4.1312  -28.4257   52.5756 C   0  0  0  1  0  0
   -4.7999  -29.2565   53.4860 C   0  0  0  1  0  0
   -4.0864  -30.2403   54.1936 C   0  0  0  1  0  0
   -4.7592  -31.0384   55.2836 C   0  0  0  1  0  0
   -4.0485  -30.8602   56.6351 C   0  0  0  1  0  0
   -3.1532  -30.0475   56.7247 O   0  0  0  1  0  0
   -4.4121  -31.5884   57.6913 O   0  0  0  1  0  0
   -6.2694  -31.2187   55.2481 C   0  0  0  1  0  0
   -5.3660  -32.3863   54.9266 C   0  0  0  1  0  0
   -2.7248  -30.4557   53.9154 C   0  0  0  1  0  0
   -2.0526  -29.6196   53.0138 C   0  0  0  1  0  0
   -0.9371  -26.8761   52.1331 C   0  0  0  1  0  0
   -1.3064  -25.4003   51.9497 C   0  0  0  1  0  0
   -1.9288  -22.3300   46.4160 H   0  0
   -0.1931  -21.9945   46.5789 H   0  0
   -1.2902  -21.6830   47.9529 H   0  0
   -1.7769  -24.1103   48.0603 H   0  0
    0.3303  -24.3659   45.8856 H   0  0
   -1.4053  -24.7014   45.7227 H   0  0
   -0.3946  -25.7401   46.7656 H   0  0
    1.6493  -22.9333   47.3137 H   0  0
    3.5510  -23.0316   48.9041 H   0  0
    3.2402  -24.0679   51.1451 H   0  0
    1.0357  -24.9805   51.7942 H   0  0
   -3.9218  -25.3598   50.6815 H   0  0
   -6.1654  -25.1450   51.2242 H   0  0
   -8.2736  -23.8040   51.1160 H   0  0
   -8.2056  -21.4741   50.2386 H   0  0
   -4.0367  -21.7686   49.5537 H   0  0
   -2.1828  -25.9001   48.6494 H   0  0
   -0.7091  -26.6469   49.1811 H   0  0
   -2.3299  -28.2923   49.5790 H   0  0
   -3.5242  -27.1299   50.1586 H   0  0
   -4.6857  -27.6669   52.0235 H   0  0
   -5.8719  -29.1399   53.6451 H   0  0
   -4.3227  -32.5827   57.3659 H   0  0
   -6.7030  -30.7858   54.3466 H   0  0
   -6.6861  -31.2972   56.2522 H   0  0
   -5.3029  -33.0869   55.7593 H   0  0
   -5.3185  -32.5745   53.8540 H   0  0
   -2.1921  -31.2732   54.4012 H   0  0
   -0.9945  -29.7811   52.8077 H   0  0
   -0.8172  -27.0971   53.1937 H   0  0
   -0.0194  -27.0968   51.5880 H   0  0
   -0.5800  -24.7841   52.4796 H   0  0
   -2.2874  -25.2227   52.3903 H   0  0
  1  2  1  0
  2  3  1  0
  2  4  1  0
  4  5  2  0
  4  9  1  0
  5  6  1  0
  6  7  2  0
  7  8  1  0
  8  9  2  0
  9 10  1  0
 10 11  1  0
 10 20  1  0
 10 36  1  0
 11 12  2  0
 11 13  1  0
 13 14  1  0
 14 15  2  0
 14 19  1  0
 15 16  1  0
 16 17  2  0
 17 18  1  0
 18 19  2  0
 20 21  1  0
 21 22  1  0
 22 23  1  0
 22 35  1  0
 23 24  2  0
 23 34  1  0
 24 25  1  0
 25 26  2  0
 26 27  1  0
 26 33  1  0
 27 28  1  0
 27 31  1  0
 27 32  1  0
 28 29  2  0
 28 30  1  0
 31 32  1  0
 33 34  2  0
 35 36  1  0
  1 37  1  0
  1 38  1  0
  1 39  1  0
  2 40  1  0
  3 41  1  0
  3 42  1  0
  3 43  1  0
  5 44  1  0
  6 45  1  0
  7 46  1  0
  8 47  1  0
 13 48  1  0
 15 49  1  0
 16 50  1  0
 17 51  1  0
 19 52  1  0
 20 53  1  0
 20 54  1  0
 21 55  1  0
 21 56  1  0
 24 57  1  0
 25 58  1  0
 30 59  1  0
 31 60  1  0
 31 61  1  0
 32 62  1  0
 32 63  1  0
 33 64  1  0
 34 65  1  0
 35 66  1  0
 35 67  1  0
 36 68  1  0
 36 69  1  0
M  END
> <Name>
Molecule

> <AbsoluteEnergy>
74.4356

> <Clean Energy>
200.984

> <ConfNumber>
61

> <MOL_NUMBER>
2

> <RelativeEnergy>
12.9324

> <POSE_NUMBER>
63

> <LibDockScore>
107.2445

> <HotSpots>
2.67,-23.92,48.98,A,32,6
-5.93,-24.72,51.19,A,53,15
-4.33,-32.92,55.19,A,75,32

$$$$
Molecule
  SciTegic05072616053D

 69 73  0  0  0  0            999 V2000
   -3.9758  -25.7023   45.3960 C   0  0  0  1  0  0
   -3.5239  -25.0435   46.7202 C   0  0  0  1  0  0
   -3.7424  -23.5205   46.6674 C   0  0  0  1  0  0
   -2.1026  -25.3732   47.1376 C   0  0  0  1  0  0
   -1.1076  -25.0815   46.1701 C   0  0  0  1  0  0
    0.2487  -25.3261   46.4008 C   0  0  0  1  0  0
    0.6524  -25.8602   47.6222 C   0  0  0  1  0  0
   -0.3030  -26.1481   48.6022 C   0  0  0  1  0  0
   -1.6937  -25.9276   48.4078 C   0  0  0  1  0  0
   -2.5606  -26.3122   49.6292 C   0  0  0  1  0  0
   -1.7486  -26.0795   50.9160 C   0  0  0  1  0  0
   -1.3429  -27.0364   51.5342 O   0  0  0  1  0  0
   -1.5029  -24.7845   51.3566 N   0  0  0  1  0  0
   -0.5011  -24.3343   52.2187 C   0  0  0  1  0  0
   -0.7446  -23.1628   52.9740 C   0  0  0  1  0  0
    0.2293  -22.6896   53.8690 C   0  0  0  1  0  0
    1.4437  -23.3829   53.9944 C   0  0  0  1  0  0
    1.6956  -24.5044   53.2656 N   0  0  0  1  0  0
    0.7548  -24.9763   52.3964 C   0  0  0  1  0  0
   -2.9932  -27.8075   49.4819 C   0  0  0  1  0  0
   -3.8051  -28.4086   50.6535 C   0  0  0  1  0  0
   -4.8418  -27.5105   51.2565 N   0  0  0  1  0  0
   -5.9044  -28.0589   51.9873 C   0  0  0  1  0  0
   -5.9042  -29.4362   52.3204 C   0  0  0  1  0  0
   -6.9227  -29.9924   53.1142 C   0  0  0  1  0  0
   -7.9733  -29.1866   53.5825 C   0  0  0  1  0  0
   -9.0389  -29.7582   54.4941 C   0  0  0  1  0  0
   -8.8466  -29.3413   55.9488 C   0  0  0  1  0  0
   -7.7851  -28.8637   56.2855 O   0  0  0  1  0  0
   -9.8458  -29.5070   56.8154 O   0  0  0  1  0  0
   -9.6223  -31.1420   54.2430 C   0  0  0  1  0  0
  -10.4497  -29.9164   53.9433 C   0  0  0  1  0  0
   -8.0221  -27.8328   53.2108 C   0  0  0  1  0  0
   -6.9993  -27.2743   52.4248 C   0  0  0  1  0  0
   -4.6635  -26.0265   51.1175 C   0  0  0  1  0  0
   -3.9231  -25.6028   49.8332 C   0  0  0  1  0  0
   -3.3984  -25.2803   44.5734 H   0  0
   -5.0333  -25.4919   45.2366 H   0  0
   -3.8173  -26.7797   45.4430 H   0  0
   -4.1558  -25.4787   47.4944 H   0  0
   -4.8008  -23.3183   46.5032 H   0  0
   -3.1659  -23.1068   45.8400 H   0  0
   -3.4212  -23.0655   47.6044 H   0  0
   -1.4108  -24.6524   45.2151 H   0  0
    0.9858  -25.1005   45.6301 H   0  0
    1.7081  -26.0529   47.8134 H   0  0
    0.0328  -26.5586   49.5545 H   0  0
   -2.1692  -24.0336   50.9864 H   0  0
   -1.6875  -22.6277   52.8614 H   0  0
    0.0440  -21.7929   54.4603 H   0  0
    2.1994  -23.0159   54.6889 H   0  0
    0.9737  -25.8749   51.8196 H   0  0
   -2.0989  -28.4137   49.3374 H   0  0
   -3.5809  -27.9083   48.5694 H   0  0
   -3.1120  -28.7103   51.4388 H   0  0
   -4.2966  -29.3171   50.3053 H   0  0
   -5.1006  -30.0755   51.9549 H   0  0
   -6.8968  -31.0524   53.3669 H   0  0
  -10.0817  -30.5288   56.7631 H   0  0
   -9.9325  -31.6197   55.1723 H   0  0
   -9.2176  -31.5868   53.3339 H   0  0
  -10.4872  -29.7076   52.8742 H   0  0
  -11.2009  -29.7395   54.7131 H   0  0
   -8.8578  -27.2119   53.5337 H   0  0
   -7.0496  -26.2213   52.1478 H   0  0
   -5.6449  -25.5523   51.1302 H   0  0
   -4.1101  -25.6561   51.9804 H   0  0
   -3.7581  -24.5258   49.8624 H   0  0
   -4.5617  -25.8120   48.9750 H   0  0
  1  2  1  0
  2  3  1  0
  2  4  1  0
  4  5  2  0
  4  9  1  0
  5  6  1  0
  6  7  2  0
  7  8  1  0
  8  9  2  0
  9 10  1  0
 10 11  1  0
 10 20  1  0
 10 36  1  0
 11 12  2  0
 11 13  1  0
 13 14  1  0
 14 15  2  0
 14 19  1  0
 15 16  1  0
 16 17  2  0
 17 18  1  0
 18 19  2  0
 20 21  1  0
 21 22  1  0
 22 23  1  0
 22 35  1  0
 23 24  2  0
 23 34  1  0
 24 25  1  0
 25 26  2  0
 26 27  1  0
 26 33  1  0
 27 28  1  0
 27 31  1  0
 27 32  1  0
 28 29  2  0
 28 30  1  0
 31 32  1  0
 33 34  2  0
 35 36  1  0
  1 37  1  0
  1 38  1  0
  1 39  1  0
  2 40  1  0
  3 41  1  0
  3 42  1  0
  3 43  1  0
  5 44  1  0
  6 45  1  0
  7 46  1  0
  8 47  1  0
 13 48  1  0
 15 49  1  0
 16 50  1  0
 17 51  1  0
 19 52  1  0
 20 53  1  0
 20 54  1  0
 21 55  1  0
 21 56  1  0
 24 57  1  0
 25 58  1  0
 30 59  1  0
 31 60  1  0
 31 61  1  0
 32 62  1  0
 32 63  1  0
 33 64  1  0
 34 65  1  0
 35 66  1  0
 35 67  1  0
 36 68  1  0
 36 69  1  0
M  END
> <Name>
Molecule

> <AbsoluteEnergy>
72.3683

> <Clean Energy>
200.984

> <ConfNumber>
51

> <MOL_NUMBER>
2

> <RelativeEnergy>
10.8651

> <POSE_NUMBER>
64

> <LibDockScore>
103.8423

> <HotSpots>
-2.53,-22.32,48.19,A,29,3
0.47,-23.32,53.78,A,67,16
-7.93,-28.32,52.38,A,59,33

$$$$
Molecule
  SciTegic05072616053D

 69 73  0  0  0  0            999 V2000
   -8.2673  -30.5105   54.1782 C   0  0  0  1  0  0
   -6.9933  -29.7574   54.6062 C   0  0  0  1  0  0
   -7.2682  -28.8143   55.7928 C   0  0  0  1  0  0
   -5.8503  -30.7082   54.8874 C   0  0  0  1  0  0
   -6.0740  -31.6968   55.8731 C   0  0  0  1  0  0
   -5.0798  -32.6192   56.2148 C   0  0  0  1  0  0
   -3.8414  -32.5738   55.5722 C   0  0  0  1  0  0
   -3.5975  -31.6069   54.5883 C   0  0  0  1  0  0
   -4.5839  -30.6552   54.2171 C   0  0  0  1  0  0
   -4.2707  -29.6197   53.1269 C   0  0  0  1  0  0
   -5.5324  -29.2377   52.3338 C   0  0  0  1  0  0
   -5.8306  -28.0687   52.2305 O   0  0  0  1  0  0
   -6.3034  -30.2376   51.7496 N   0  0  0  1  0  0
   -7.5959  -30.1485   51.2303 C   0  0  0  1  0  0
   -8.1080  -31.2564   50.5190 C   0  0  0  1  0  0
   -9.4054  -31.2074   49.9833 C   0  0  0  1  0  0
  -10.1796  -30.0475   50.1566 C   0  0  0  1  0  0
   -9.6977  -28.9771   50.8412 N   0  0  0  1  0  0
   -8.4410  -29.0153   51.3735 C   0  0  0  1  0  0
   -3.5342  -28.4171   53.7799 C   0  0  0  1  0  0
   -3.0997  -27.2778   52.8315 C   0  0  0  1  0  0
   -2.7143  -27.6686   51.4332 N   0  0  0  1  0  0
   -2.1915  -26.7084   50.5509 C   0  0  0  1  0  0
   -1.9570  -27.0215   49.1896 C   0  0  0  1  0  0
   -1.4529  -26.0615   48.2976 C   0  0  0  1  0  0
   -1.1686  -24.7596   48.7425 C   0  0  0  1  0  0
   -0.6521  -23.7166   47.7768 C   0  0  0  1  0  0
   -1.7572  -22.8002   47.2486 C   0  0  0  1  0  0
   -1.5057  -21.6290   47.0381 O   0  0  0  1  0  0
   -2.9702  -23.3161   47.0342 O   0  0  0  1  0  0
    0.7483  -23.1544   47.9955 C   0  0  0  1  0  0
    0.4809  -24.0736   46.8269 C   0  0  0  1  0  0
   -1.3781  -24.4320   50.0905 C   0  0  0  1  0  0
   -1.8891  -25.3902   50.9811 C   0  0  0  1  0  0
   -2.9412  -29.0776   50.9680 C   0  0  0  1  0  0
   -3.2337  -30.1029   52.0775 C   0  0  0  1  0  0
   -9.0253  -29.7800   53.8955 H   0  0
   -8.6317  -31.0890   55.0271 H   0  0
   -8.0535  -31.1720   53.3386 H   0  0
   -6.6843  -29.1332   53.7678 H   0  0
   -7.6404  -29.4061   56.6291 H   0  0
   -8.0340  -28.0971   55.4975 H   0  0
   -6.3566  -28.2909   56.0811 H   0  0
   -7.0399  -31.7409   56.3764 H   0  0
   -5.2713  -33.3711   56.9804 H   0  0
   -3.0640  -33.2908   55.8361 H   0  0
   -2.6257  -31.5845   54.0951 H   0  0
   -5.8449  -31.2026   51.6906 H   0  0
   -7.4965  -32.1489   50.3860 H   0  0
   -9.8080  -32.0611   49.4382 H   0  0
  -11.1838  -30.0057   49.7347 H   0  0
   -8.0747  -28.1497   51.9254 H   0  0
   -4.1793  -27.9952   54.5506 H   0  0
   -2.6493  -28.7918   54.2943 H   0  0
   -3.9105  -26.5518   52.7718 H   0  0
   -2.2572  -26.7547   53.2839 H   0  0
   -2.1720  -28.0269   48.8276 H   0  0
   -1.2813  -26.3277   47.2546 H   0  0
   -3.2590  -23.7332   47.9535 H   0  0
    1.2645  -23.6716   48.8043 H   0  0
    0.8133  -22.1126   47.6815 H   0  0
    0.4067  -23.5216   45.8899 H   0  0
    0.8561  -25.0800   47.0127 H   0  0
   -1.1433  -23.4295   50.4481 H   0  0
   -2.0567  -25.1162   52.0227 H   0  0
   -2.0615  -29.4066   50.4148 H   0  0
   -3.7739  -29.0803   50.2646 H   0  0
   -3.5984  -31.0217   51.6183 H   0  0
   -2.3012  -30.3420   52.5887 H   0  0
  1  2  1  0
  2  3  1  0
  2  4  1  0
  4  5  2  0
  4  9  1  0
  5  6  1  0
  6  7  2  0
  7  8  1  0
  8  9  2  0
  9 10  1  0
 10 11  1  0
 10 20  1  0
 10 36  1  0
 11 12  2  0
 11 13  1  0
 13 14  1  0
 14 15  2  0
 14 19  1  0
 15 16  1  0
 16 17  2  0
 17 18  1  0
 18 19  2  0
 20 21  1  0
 21 22  1  0
 22 23  1  0
 22 35  1  0
 23 24  2  0
 23 34  1  0
 24 25  1  0
 25 26  2  0
 26 27  1  0
 26 33  1  0
 27 28  1  0
 27 31  1  0
 27 32  1  0
 28 29  2  0
 28 30  1  0
 31 32  1  0
 33 34  2  0
 35 36  1  0
  1 37  1  0
  1 38  1  0
  1 39  1  0
  2 40  1  0
  3 41  1  0
  3 42  1  0
  3 43  1  0
  5 44  1  0
  6 45  1  0
  7 46  1  0
  8 47  1  0
 13 48  1  0
 15 49  1  0
 16 50  1  0
 17 51  1  0
 19 52  1  0
 20 53  1  0
 20 54  1  0
 21 55  1  0
 21 56  1  0
 24 57  1  0
 25 58  1  0
 30 59  1  0
 31 60  1  0
 31 61  1  0
 32 62  1  0
 32 63  1  0
 33 64  1  0
 34 65  1  0
 35 66  1  0
 35 67  1  0
 36 68  1  0
 36 69  1  0
M  END
> <Name>
Molecule

> <AbsoluteEnergy>
62.4783

> <Clean Energy>
200.984

> <ConfNumber>
3

> <MOL_NUMBER>
2

> <RelativeEnergy>
0.975141

> <POSE_NUMBER>
65

> <LibDockScore>
103.3626

> <HotSpots>
-4.33,-32.92,55.19,A,75,7
-10.33,-29.72,49.78,A,35,17
0.27,-24.92,46.38,A,19,32

$$$$
Molecule
  SciTegic05072616053D

 69 73  0  0  0  0            999 V2000
   -0.7329  -28.1281   54.9061 C   0  0  0  1  0  0
   -1.4757  -27.4251   53.7475 C   0  0  0  1  0  0
   -2.9826  -27.3754   54.0841 C   0  0  0  1  0  0
   -0.9466  -26.0560   53.3588 C   0  0  0  1  0  0
   -0.0272  -25.4637   54.2586 C   0  0  0  1  0  0
    0.5727  -24.2282   53.9988 C   0  0  0  1  0  0
    0.2494  -23.5360   52.8345 C   0  0  0  1  0  0
   -0.6869  -24.0742   51.9445 C   0  0  0  1  0  0
   -1.3190  -25.3289   52.1682 C   0  0  0  1  0  0
   -2.3631  -25.7268   51.1045 C   0  0  0  1  0  0
   -1.8802  -25.3717   49.6858 C   0  0  0  1  0  0
   -2.5456  -24.6307   48.9964 O   0  0  0  1  0  0
   -0.7037  -25.9255   49.2022 N   0  0  0  1  0  0
    0.1102  -25.4006   48.2112 C   0  0  0  1  0  0
   -0.1611  -24.1789   47.5521 C   0  0  0  1  0  0
    0.7036  -23.7444   46.5338 C   0  0  0  1  0  0
    1.8235  -24.5276   46.1981 C   0  0  0  1  0  0
    2.0955  -25.6961   46.8455 N   0  0  0  1  0  0
    1.2641  -26.1262   47.8341 C   0  0  0  1  0  0
   -3.6705  -24.9052   51.4240 C   0  0  0  1  0  0
   -4.9259  -25.2959   50.6029 C   0  0  0  1  0  0
   -5.0678  -26.7677   50.6604 N   0  0  0  1  0  0
   -6.0188  -27.4421   51.4120 C   0  0  0  1  0  0
   -5.8627  -28.8128   51.7147 C   0  0  0  1  0  0
   -6.6794  -29.4230   52.6786 C   0  0  0  1  0  0
   -7.6656  -28.6685   53.3352 C   0  0  0  1  0  0
   -8.3818  -29.2452   54.5249 C   0  0  0  1  0  0
   -7.6713  -28.8165   55.8018 C   0  0  0  1  0  0
   -8.2773  -28.1873   56.6361 O   0  0  0  1  0  0
   -6.3835  -29.1198   55.9668 O   0  0  0  1  0  0
   -9.8909  -29.4084   54.5205 C   0  0  0  1  0  0
   -9.0044  -30.6278   54.4501 C   0  0  0  1  0  0
   -7.9455  -27.3602   52.9075 C   0  0  0  1  0  0
   -7.1290  -26.7494   51.9450 C   0  0  0  1  0  0
   -3.9341  -27.4773   50.0261 C   0  0  0  1  0  0
   -2.7519  -27.2457   50.9843 C   0  0  0  1  0  0
   -1.1102  -29.1436   55.0265 H   0  0
   -0.8785  -27.5714   55.8318 H   0  0
    0.3319  -28.1675   54.6766 H   0  0
   -1.2924  -28.0251   52.8561 H   0  0
   -3.1383  -26.8153   55.0061 H   0  0
   -3.3701  -28.3875   54.2008 H   0  0
   -3.5145  -26.8807   53.2714 H   0  0
    0.2202  -25.9873   55.1820 H   0  0
    1.2901  -23.8086   54.7041 H   0  0
    0.7237  -22.5789   52.6173 H   0  0
   -0.9413  -23.5111   51.0465 H   0  0
   -0.3934  -26.8518   49.6387 H   0  0
   -1.0298  -23.5823   47.8307 H   0  0
    0.5089  -22.8093   46.0086 H   0  0
    2.4886  -24.1923   45.4023 H   0  0
    1.4948  -27.0579   48.3506 H   0  0
   -3.4660  -23.8472   51.2602 H   0  0
   -3.9014  -25.0176   52.4833 H   0  0
   -4.8011  -24.9797   49.5673 H   0  0
   -5.8085  -24.8250   51.0358 H   0  0
   -5.1039  -29.3995   51.1969 H   0  0
   -6.5491  -30.4786   52.9170 H   0  0
   -5.8993  -28.7077   55.1312 H   0  0
  -10.3174  -29.1648   53.5475 H   0  0
  -10.3108  -29.2735   55.5173 H   0  0
   -8.9525  -31.1430   55.4093 H   0  0
   -8.9578  -31.0333   53.4394 H   0  0
   -8.7963  -26.8204   53.3233 H   0  0
   -7.3514  -25.7373   51.6070 H   0  0
   -4.1515  -28.5428   49.9523 H   0  0
   -3.7150  -27.0419   49.0512 H   0  0
   -1.8891  -27.8068   50.6253 H   0  0
   -3.0157  -27.6259   51.9712 H   0  0
  1  2  1  0
  2  3  1  0
  2  4  1  0
  4  5  2  0
  4  9  1  0
  5  6  1  0
  6  7  2  0
  7  8  1  0
  8  9  2  0
  9 10  1  0
 10 11  1  0
 10 20  1  0
 10 36  1  0
 11 12  2  0
 11 13  1  0
 13 14  1  0
 14 15  2  0
 14 19  1  0
 15 16  1  0
 16 17  2  0
 17 18  1  0
 18 19  2  0
 20 21  1  0
 21 22  1  0
 22 23  1  0
 22 35  1  0
 23 24  2  0
 23 34  1  0
 24 25  1  0
 25 26  2  0
 26 27  1  0
 26 33  1  0
 27 28  1  0
 27 31  1  0
 27 32  1  0
 28 29  2  0
 28 30  1  0
 31 32  1  0
 33 34  2  0
 35 36  1  0
  1 37  1  0
  1 38  1  0
  1 39  1  0
  2 40  1  0
  3 41  1  0
  3 42  1  0
  3 43  1  0
  5 44  1  0
  6 45  1  0
  7 46  1  0
  8 47  1  0
 13 48  1  0
 15 49  1  0
 16 50  1  0
 17 51  1  0
 19 52  1  0
 20 53  1  0
 20 54  1  0
 21 55  1  0
 21 56  1  0
 24 57  1  0
 25 58  1  0
 30 59  1  0
 31 60  1  0
 31 61  1  0
 32 62  1  0
 32 63  1  0
 33 64  1  0
 34 65  1  0
 35 66  1  0
 35 67  1  0
 36 68  1  0
 36 69  1  0
M  END
> <Name>
Molecule

> <AbsoluteEnergy>
77.91

> <Clean Energy>
200.984

> <ConfNumber>
87

> <MOL_NUMBER>
2

> <RelativeEnergy>
16.4068

> <POSE_NUMBER>
66

> <LibDockScore>
100.9537

> <HotSpots>
-0.93,-28.12,54.98,A,74,1
0.47,-23.32,53.78,A,67,7
-6.33,-26.32,51.98,A,57,34

$$$$
Molecule
  SciTegic05072616053D

 69 73  0  0  0  0            999 V2000
    1.2089  -25.7977   53.0406 C   0  0  0  1  0  0
    0.6188  -24.4366   52.6299 C   0  0  0  1  0  0
    0.8924  -23.3596   53.6989 C   0  0  0  1  0  0
    1.0779  -24.0220   51.2501 C   0  0  0  1  0  0
    2.4748  -23.9966   51.0479 C   0  0  0  1  0  0
    3.0273  -23.5982   49.8273 C   0  0  0  1  0  0
    2.1854  -23.2173   48.7793 C   0  0  0  1  0  0
    0.7953  -23.2523   48.9494 C   0  0  0  1  0  0
    0.2013  -23.6700   50.1692 C   0  0  0  1  0  0
   -1.3276  -23.7313   50.2763 C   0  0  0  1  0  0
   -1.7951  -25.1947   50.3843 C   0  0  0  1  0  0
   -2.0661  -25.6539   51.4719 O   0  0  0  1  0  0
   -1.9473  -25.9692   49.2436 N   0  0  0  1  0  0
   -2.0269  -27.3563   49.2052 C   0  0  0  1  0  0
   -1.8404  -28.1773   50.3419 C   0  0  0  1  0  0
   -1.9972  -29.5685   50.2220 C   0  0  0  1  0  0
   -2.3229  -30.1199   48.9701 C   0  0  0  1  0  0
   -2.4751  -29.3351   47.8675 N   0  0  0  1  0  0
   -2.3256  -27.9845   47.9729 C   0  0  0  1  0  0
   -2.0856  -23.1024   49.0430 C   0  0  0  1  0  0
   -3.6345  -23.2023   49.1138 C   0  0  0  1  0  0
   -4.0718  -23.3532   50.5317 N   0  0  0  1  0  0
   -4.9464  -24.3387   50.9910 C   0  0  0  1  0  0
   -5.5934  -24.2193   52.2434 C   0  0  0  1  0  0
   -6.2993  -25.3039   52.7901 C   0  0  0  1  0  0
   -6.3797  -26.5184   52.0862 C   0  0  0  1  0  0
   -6.9878  -27.7388   52.7264 C   0  0  0  1  0  0
   -5.9093  -28.7278   53.1445 C   0  0  0  1  0  0
   -5.8702  -29.1196   54.2882 O   0  0  0  1  0  0
   -5.0196  -29.1294   52.2342 O   0  0  0  1  0  0
   -8.2611  -27.6197   53.5498 C   0  0  0  1  0  0
   -8.3016  -28.2900   52.1975 C   0  0  0  1  0  0
   -5.8598  -26.6025   50.7846 C   0  0  0  1  0  0
   -5.1667  -25.5179   50.2367 C   0  0  0  1  0  0
   -3.3255  -22.4464   51.4447 C   0  0  0  1  0  0
   -1.8256  -22.8601   51.4917 C   0  0  0  1  0  0
    0.7608  -26.1010   53.9868 H   0  0
    2.2843  -25.6847   53.1775 H   0  0
    1.0062  -26.5458   52.2742 H   0  0
   -0.4639  -24.5474   52.5703 H   0  0
    1.9702  -23.2649   53.8308 H   0  0
    0.4467  -23.6812   54.6402 H   0  0
    0.4680  -22.4038   53.3916 H   0  0
    3.1368  -24.2941   51.8611 H   0  0
    4.1090  -23.5848   49.6938 H   0  0
    2.6102  -22.8929   47.8294 H   0  0
    0.1523  -22.9506   48.1226 H   0  0
   -2.0090  -25.4521   48.3089 H   0  0
   -1.5773  -27.7346   51.3026 H   0  0
   -1.8677  -30.2139   51.0908 H   0  0
   -2.4563  -31.1980   48.8803 H   0  0
   -2.4396  -27.3692   47.0804 H   0  0
   -1.7458  -23.5965   48.1328 H   0  0
   -1.8074  -22.0518   48.9595 H   0  0
   -4.0754  -22.2982   48.6939 H   0  0
   -3.9695  -24.0656   48.5387 H   0  0
   -5.5437  -23.2771   52.7892 H   0  0
   -6.7851  -25.2038   53.7607 H   0  0
   -4.5772  -28.2482   51.8733 H   0  0
   -8.6700  -26.6101   53.5106 H   0  0
   -8.2821  -28.3479   54.3606 H   0  0
   -8.3458  -29.3753   52.2879 H   0  0
   -8.7320  -27.6375   51.4379 H   0  0
   -5.9963  -27.5130   50.2010 H   0  0
   -4.7909  -25.5807   49.2155 H   0  0
   -3.7498  -22.5100   52.4467 H   0  0
   -3.4070  -21.4212   51.0835 H   0  0
   -1.2184  -21.9565   51.5457 H   0  0
   -1.6473  -23.4140   52.4134 H   0  0
  1  2  1  0
  2  3  1  0
  2  4  1  0
  4  5  2  0
  4  9  1  0
  5  6  1  0
  6  7  2  0
  7  8  1  0
  8  9  2  0
  9 10  1  0
 10 11  1  0
 10 20  1  0
 10 36  1  0
 11 12  2  0
 11 13  1  0
 13 14  1  0
 14 15  2  0
 14 19  1  0
 15 16  1  0
 16 17  2  0
 17 18  1  0
 18 19  2  0
 20 21  1  0
 21 22  1  0
 22 23  1  0
 22 35  1  0
 23 24  2  0
 23 34  1  0
 24 25  1  0
 25 26  2  0
 26 27  1  0
 26 33  1  0
 27 28  1  0
 27 31  1  0
 27 32  1  0
 28 29  2  0
 28 30  1  0
 31 32  1  0
 33 34  2  0
 35 36  1  0
  1 37  1  0
  1 38  1  0
  1 39  1  0
  2 40  1  0
  3 41  1  0
  3 42  1  0
  3 43  1  0
  5 44  1  0
  6 45  1  0
  7 46  1  0
  8 47  1  0
 13 48  1  0
 15 49  1  0
 16 50  1  0
 17 51  1  0
 19 52  1  0
 20 53  1  0
 20 54  1  0
 21 55  1  0
 21 56  1  0
 24 57  1  0
 25 58  1  0
 30 59  1  0
 31 60  1  0
 31 61  1  0
 32 62  1  0
 32 63  1  0
 33 64  1  0
 34 65  1  0
 35 66  1  0
 35 67  1  0
 36 68  1  0
 36 69  1  0
M  END
> <Name>
Molecule

> <AbsoluteEnergy>
70.7123

> <Clean Energy>
200.984

> <ConfNumber>
33

> <MOL_NUMBER>
2

> <RelativeEnergy>
9.20908

> <POSE_NUMBER>
67

> <LibDockScore>
96.5665

> <HotSpots>
0.47,-23.32,53.78,A,67,3
2.67,-22.92,49.98,A,39,6
-5.93,-24.72,51.19,A,53,24

$$$$
Molecule
  SciTegic05072616053D

 69 73  0  0  0  0            999 V2000
   -2.0501  -25.7340   47.1245 C   0  0  0  1  0  0
   -1.7873  -24.3600   47.7667 C   0  0  0  1  0  0
   -0.9073  -23.5111   46.8179 C   0  0  0  1  0  0
   -3.0846  -23.7077   48.2187 C   0  0  0  1  0  0
   -3.6548  -22.7743   47.3145 C   0  0  0  1  0  0
   -4.8587  -22.1196   47.5837 C   0  0  0  1  0  0
   -5.5409  -22.3934   48.7645 C   0  0  0  1  0  0
   -5.0108  -23.3124   49.6735 C   0  0  0  1  0  0
   -3.7727  -23.9784   49.4615 C   0  0  0  1  0  0
   -3.3478  -24.9367   50.5958 C   0  0  0  1  0  0
   -4.2637  -26.1723   50.5573 C   0  0  0  1  0  0
   -3.8682  -27.1634   49.9870 O   0  0  0  1  0  0
   -5.4931  -26.1642   51.2022 N   0  0  0  1  0  0
   -6.2183  -27.2579   51.6706 C   0  0  0  1  0  0
   -7.5472  -27.0593   52.1112 C   0  0  0  1  0  0
   -8.2610  -28.1322   52.6680 C   0  0  0  1  0  0
   -7.6445  -29.3910   52.7684 C   0  0  0  1  0  0
   -6.3774  -29.5959   52.3213 N   0  0  0  1  0  0
   -5.6754  -28.5654   51.7801 C   0  0  0  1  0  0
   -3.3631  -24.2304   52.0102 C   0  0  0  1  0  0
   -3.1897  -25.1935   53.2165 C   0  0  0  1  0  0
   -2.4899  -26.4504   52.8118 N   0  0  0  1  0  0
   -2.9098  -27.7334   53.2021 C   0  0  0  1  0  0
   -3.9996  -27.9074   54.0933 C   0  0  0  1  0  0
   -4.4669  -29.1857   54.4351 C   0  0  0  1  0  0
   -3.8374  -30.3299   53.9230 C   0  0  0  1  0  0
   -4.3433  -31.7026   54.2950 C   0  0  0  1  0  0
   -5.4935  -32.1569   53.4131 C   0  0  0  1  0  0
   -6.6260  -31.8699   53.7309 O   0  0  0  1  0  0
   -5.2257  -32.8521   52.3087 O   0  0  0  1  0  0
   -4.3534  -32.1214   55.7568 C   0  0  0  1  0  0
   -3.3688  -32.7531   54.8036 C   0  0  0  1  0  0
   -2.7427  -30.1837   53.0560 C   0  0  0  1  0  0
   -2.2853  -28.9036   52.7007 C   0  0  0  1  0  0
   -1.3713  -26.1747   51.8674 C   0  0  0  1  0  0
   -1.8701  -25.4694   50.5711 C   0  0  0  1  0  0
   -1.1026  -26.2454   46.9546 H   0  0
   -2.5665  -25.6005   46.1739 H   0  0
   -2.6698  -26.3336   47.7912 H   0  0
   -1.2151  -24.4666   48.6883 H   0  0
   -1.4219  -23.3742   45.8668 H   0  0
    0.0419  -24.0191   46.6475 H   0  0
   -0.7200  -22.5375   47.2708 H   0  0
   -3.1364  -22.5615   46.3796 H   0  0
   -5.2614  -21.3983   46.8726 H   0  0
   -6.4851  -21.8931   48.9797 H   0  0
   -5.5702  -23.5280   50.5839 H   0  0
   -5.9368  -25.2031   51.3582 H   0  0
   -8.0146  -26.0789   52.0190 H   0  0
   -9.2832  -27.9903   53.0189 H   0  0
   -8.1938  -30.2203   53.2141 H   0  0
   -4.6635  -28.7485   51.4187 H   0  0
   -4.3050  -23.6940   52.1250 H   0  0
   -2.5660  -23.4875   52.0396 H   0  0
   -2.6097  -24.6953   53.9933 H   0  0
   -4.1703  -25.4445   53.6208 H   0  0
   -4.4841  -27.0299   54.5215 H   0  0
   -5.3230  -29.2900   55.1016 H   0  0
   -4.6749  -33.6839   52.6361 H   0  0
   -5.1864  -32.7894   55.9759 H   0  0
   -3.8770  -31.3730   56.3901 H   0  0
   -2.3670  -32.3422   54.9292 H   0  0
   -3.6770  -33.7576   54.5138 H   0  0
   -2.2453  -31.0676   52.6566 H   0  0
   -1.4340  -28.8082   52.0267 H   0  0
   -0.8889  -27.1147   51.5996 H   0  0
   -0.6364  -25.5383   52.3604 H   0  0
   -1.2040  -24.6339   50.3559 H   0  0
   -1.7676  -26.1659   49.7389 H   0  0
  1  2  1  0
  2  3  1  0
  2  4  1  0
  4  5  2  0
  4  9  1  0
  5  6  1  0
  6  7  2  0
  7  8  1  0
  8  9  2  0
  9 10  1  0
 10 11  1  0
 10 20  1  0
 10 36  1  0
 11 12  2  0
 11 13  1  0
 13 14  1  0
 14 15  2  0
 14 19  1  0
 15 16  1  0
 16 17  2  0
 17 18  1  0
 18 19  2  0
 20 21  1  0
 21 22  1  0
 22 23  1  0
 22 35  1  0
 23 24  2  0
 23 34  1  0
 24 25  1  0
 25 26  2  0
 26 27  1  0
 26 33  1  0
 27 28  1  0
 27 31  1  0
 27 32  1  0
 28 29  2  0
 28 30  1  0
 31 32  1  0
 33 34  2  0
 35 36  1  0
  1 37  1  0
  1 38  1  0
  1 39  1  0
  2 40  1  0
  3 41  1  0
  3 42  1  0
  3 43  1  0
  5 44  1  0
  6 45  1  0
  7 46  1  0
  8 47  1  0
 13 48  1  0
 15 49  1  0
 16 50  1  0
 17 51  1  0
 19 52  1  0
 20 53  1  0
 20 54  1  0
 21 55  1  0
 21 56  1  0
 24 57  1  0
 25 58  1  0
 30 59  1  0
 31 60  1  0
 31 61  1  0
 32 62  1  0
 32 63  1  0
 33 64  1  0
 34 65  1  0
 35 66  1  0
 35 67  1  0
 36 68  1  0
 36 69  1  0
M  END
> <Name>
Molecule

> <AbsoluteEnergy>
77.9652

> <Clean Energy>
200.984

> <ConfNumber>
89

> <MOL_NUMBER>
2

> <RelativeEnergy>
16.462

> <POSE_NUMBER>
68

> <LibDockScore>
93.2137

> <HotSpots>
-0.93,-23.32,46.98,A,25,3
-7.93,-28.32,52.38,A,59,16
-4.13,-31.12,56.59,A,79,31

$$$$
Molecule
  SciTegic05072616053D

 69 73  0  0  0  0            999 V2000
   -1.0273  -23.3955   46.2854 C   0  0  0  1  0  0
   -0.8325  -24.6541   47.1511 C   0  0  0  1  0  0
   -0.0684  -25.7515   46.3859 C   0  0  0  1  0  0
   -0.1843  -24.3216   48.4790 C   0  0  0  1  0  0
    1.1682  -23.9210   48.4371 C   0  0  0  1  0  0
    1.8599  -23.5738   49.6025 C   0  0  0  1  0  0
    1.2037  -23.6133   50.8339 C   0  0  0  1  0  0
   -0.1372  -24.0093   50.8998 C   0  0  0  1  0  0
   -0.8595  -24.3886   49.7423 C   0  0  0  1  0  0
   -2.3133  -24.8544   49.8740 C   0  0  0  1  0  0
   -3.1715  -24.4061   48.6772 C   0  0  0  1  0  0
   -4.0020  -25.1707   48.2405 O   0  0  0  1  0  0
   -2.9895  -23.1482   48.1148 N   0  0  0  1  0  0
   -3.6016  -22.6249   46.9774 C   0  0  0  1  0  0
   -2.9651  -21.5625   46.2935 C   0  0  0  1  0  0
   -3.5586  -21.0213   45.1411 C   0  0  0  1  0  0
   -4.7820  -21.5428   44.6843 C   0  0  0  1  0  0
   -5.4044  -22.5607   45.3408 N   0  0  0  1  0  0
   -4.8386  -23.0930   46.4633 C   0  0  0  1  0  0
   -2.3050  -26.4236   50.0145 C   0  0  0  1  0  0
   -1.9595  -26.9307   51.4255 C   0  0  0  1  0  0
   -2.9779  -26.3544   52.3238 N   0  0  0  1  0  0
   -4.0521  -27.0934   52.7921 C   0  0  0  1  0  0
   -5.3089  -26.4707   52.9420 C   0  0  0  1  0  0
   -6.4546  -27.2416   53.1686 C   0  0  0  1  0  0
   -6.3496  -28.6398   53.2478 C   0  0  0  1  0  0
   -7.6029  -29.4711   53.2234 C   0  0  0  1  0  0
   -8.1118  -29.6310   51.7868 C   0  0  0  1  0  0
   -7.9173  -28.7411   50.9843 O   0  0  0  1  0  0
   -8.7487  -30.7446   51.4400 O   0  0  0  1  0  0
   -8.6138  -29.3383   54.3500 C   0  0  0  1  0  0
   -7.7854  -30.5953   54.2311 C   0  0  0  1  0  0
   -5.0839  -29.2493   53.2924 C   0  0  0  1  0  0
   -3.9345  -28.4760   53.0706 C   0  0  0  1  0  0
   -2.8396  -24.8944   52.4868 C   0  0  0  1  0  0
   -3.0912  -24.2369   51.1070 C   0  0  0  1  0  0
   -1.5846  -23.6713   45.3902 H   0  0
   -0.0472  -23.0200   45.9912 H   0  0
   -1.5690  -22.6313   46.8427 H   0  0
   -1.8202  -25.0561   47.3767 H   0  0
    0.9042  -25.3576   46.0909 H   0  0
   -0.6332  -26.0090   45.4899 H   0  0
    0.0597  -26.6333   47.0137 H   0  0
    1.6841  -23.8813   47.4778 H   0  0
    2.9064  -23.2738   49.5492 H   0  0
    1.7354  -23.3358   51.7440 H   0  0
   -0.6386  -24.0262   51.8675 H   0  0
   -2.2964  -22.5045   48.6150 H   0  0
   -2.0181  -21.1656   46.6593 H   0  0
   -3.0750  -20.2043   44.6056 H   0  0
   -5.2406  -21.1246   43.7882 H   0  0
   -5.3530  -23.9028   46.9808 H   0  0
   -1.5846  -26.8368   49.3086 H   0  0
   -3.2868  -26.8066   49.7360 H   0  0
   -0.9684  -26.5807   51.7142 H   0  0
   -2.0133  -28.0190   51.4521 H   0  0
   -5.3879  -25.3853   52.8811 H   0  0
   -7.4250  -26.7586   53.2832 H   0  0
   -9.5495  -30.8187   52.1151 H   0  0
   -9.6325  -29.4930   53.9944 H   0  0
   -8.2455  -28.6875   55.1430 H   0  0
   -6.9760  -30.6139   54.9609 H   0  0
   -8.3624  -31.4190   53.8107 H   0  0
   -4.9959  -30.3161   53.4980 H   0  0
   -2.9494  -28.9407   53.1128 H   0  0
   -3.5761  -24.5330   53.2045 H   0  0
   -1.8324  -24.6552   52.8282 H   0  0
   -2.8377  -23.1793   51.1801 H   0  0
   -4.1601  -24.2787   50.8976 H   0  0
  1  2  1  0
  2  3  1  0
  2  4  1  0
  4  5  2  0
  4  9  1  0
  5  6  1  0
  6  7  2  0
  7  8  1  0
  8  9  2  0
  9 10  1  0
 10 11  1  0
 10 20  1  0
 10 36  1  0
 11 12  2  0
 11 13  1  0
 13 14  1  0
 14 15  2  0
 14 19  1  0
 15 16  1  0
 16 17  2  0
 17 18  1  0
 18 19  2  0
 20 21  1  0
 21 22  1  0
 22 23  1  0
 22 35  1  0
 23 24  2  0
 23 34  1  0
 24 25  1  0
 25 26  2  0
 26 27  1  0
 26 33  1  0
 27 28  1  0
 27 31  1  0
 27 32  1  0
 28 29  2  0
 28 30  1  0
 31 32  1  0
 33 34  2  0
 35 36  1  0
  1 37  1  0
  1 38  1  0
  1 39  1  0
  2 40  1  0
  3 41  1  0
  3 42  1  0
  3 43  1  0
  5 44  1  0
  6 45  1  0
  7 46  1  0
  8 47  1  0
 13 48  1  0
 15 49  1  0
 16 50  1  0
 17 51  1  0
 19 52  1  0
 20 53  1  0
 20 54  1  0
 21 55  1  0
 21 56  1  0
 24 57  1  0
 25 58  1  0
 30 59  1  0
 31 60  1  0
 31 61  1  0
 32 62  1  0
 32 63  1  0
 33 64  1  0
 34 65  1  0
 35 66  1  0
 35 67  1  0
 36 68  1  0
 36 69  1  0
M  END
> <Name>
Molecule

> <AbsoluteEnergy>
71.5006

> <Clean Energy>
200.984

> <ConfNumber>
40

> <MOL_NUMBER>
2

> <RelativeEnergy>
9.9974

> <POSE_NUMBER>
69

> <LibDockScore>
88.5469

> <HotSpots>
0.27,-24.92,46.38,A,19,1
1.67,-24.32,50.98,A,50,7
-3.53,-20.52,45.19,A,12,17

$$$$
Molecule
  SciTegic05072616053D

 66 70  0  0  0  0            999 V2000
    2.2202  -25.6195   52.7801 C   0  0  0  1  0  0
    1.7148  -24.2237   52.3508 C   0  0  0  1  0  0
    0.8444  -23.4539   53.3673 C   0  0  0  1  0  0
    1.3065  -24.0243   50.8928 C   0  0  0  1  0  0
    2.2551  -23.2700   50.1526 C   0  0  0  1  0  0
    2.1185  -23.0270   48.7854 C   0  0  0  1  0  0
    1.0191  -23.5414   48.1094 C   0  0  0  1  0  0
    0.0491  -24.2639   48.8104 C   0  0  0  1  0  0
    0.1149  -24.4971   50.2150 C   0  0  0  1  0  0
   -1.0936  -25.2325   50.8457 C   0  0  0  1  0  0
   -2.3783  -24.3623   50.8412 C   0  0  0  1  0  0
   -2.4403  -23.3913   51.5629 O   0  0  0  1  0  0
   -3.4702  -24.6660   50.0450 N   0  0  0  1  0  0
   -4.7935  -24.0181   50.1644 C   0  0  0  1  0  0
   -5.1723  -23.0638   51.1001 C   0  0  0  1  0  0
   -6.5099  -22.8215   50.8061 C   0  0  0  1  0  0
   -6.8881  -23.5868   49.7432 N   0  0  0  1  0  0
   -5.8539  -24.3033   49.3586 O   0  0  0  1  0  0
   -1.3584  -26.5835   50.1211 C   0  0  0  1  0  0
   -2.5321  -27.4044   50.7003 C   0  0  0  1  0  0
   -2.5195  -27.5313   52.1952 N   0  0  0  1  0  0
   -2.9625  -28.6898   52.8379 C   0  0  0  1  0  0
   -3.7626  -29.6476   52.1734 C   0  0  0  1  0  0
   -4.2395  -30.7860   52.8498 C   0  0  0  1  0  0
   -3.9235  -30.9940   54.2054 C   0  0  0  1  0  0
   -4.4609  -32.1970   54.9555 C   0  0  0  1  0  0
   -3.8242  -33.5213   54.5426 C   0  0  0  1  0  0
   -3.0199  -34.0408   55.2814 O   0  0  0  1  0  0
   -4.1629  -34.1000   53.3871 O   0  0  0  1  0  0
   -4.8014  -32.0270   56.4297 C   0  0  0  1  0  0
   -5.9097  -32.2103   55.4238 C   0  0  0  1  0  0
   -3.1028  -30.0631   54.8672 C   0  0  0  1  0  0
   -2.6220  -28.9300   54.1897 C   0  0  0  1  0  0
   -2.0838  -26.3391   52.9875 C   0  0  0  1  0  0
   -0.9028  -25.5762   52.3508 C   0  0  0  1  0  0
    1.3318  -26.2030   53.0217 H   0  0
    2.7780  -25.4694   53.7045 H   0  0
    2.8270  -26.1037   52.0150 H   0  0
    2.6719  -23.7033   52.3859 H   0  0
    1.4423  -23.3670   54.2745 H   0  0
   -0.0038  -24.1006   53.5918 H   0  0
    0.5243  -22.4795   52.9983 H   0  0
    3.1234  -22.8653   50.6725 H   0  0
    2.8667  -22.4396   48.2532 H   0  0
    0.9133  -23.3822   47.0363 H   0  0
   -0.7980  -24.6682   48.2563 H   0  0
   -3.3479  -25.4188   49.2945 H   0  0
   -4.5633  -22.6106   51.8823 H   0  0
   -7.1561  -22.1269   51.3427 H   0  0
   -1.5585  -26.3830   49.0686 H   0  0
   -0.4533  -27.1893   50.1660 H   0  0
   -3.4698  -26.9385   50.3974 H   0  0
   -2.5116  -28.4036   50.2651 H   0  0
   -4.0136  -29.5023   51.1227 H   0  0
   -4.8575  -31.5112   52.3204 H   0  0
   -3.9714  -33.3671   52.6600 H   0  0
   -4.7104  -30.9872   56.7436 H   0  0
   -4.6116  -32.9418   56.9912 H   0  0
   -6.3125  -33.2228   55.4484 H   0  0
   -6.4102  -31.2683   55.1996 H   0  0
   -2.8380  -30.2217   55.9126 H   0  0
   -1.9766  -28.2251   54.7139 H   0  0
   -1.7953  -26.6652   53.9868 H   0  0
   -2.9283  -25.6580   53.0925 H   0  0
   -0.7452  -24.6511   52.9053 H   0  0
    0.0008  -26.1757   52.4616 H   0  0
  1  2  1  0
  2  3  1  0
  2  4  1  0
  4  5  2  0
  4  9  1  0
  5  6  1  0
  6  7  2  0
  7  8  1  0
  8  9  2  0
  9 10  1  0
 10 11  1  0
 10 19  1  0
 10 35  1  0
 11 12  2  0
 11 13  1  0
 13 14  1  0
 14 15  2  0
 14 18  1  0
 15 16  1  0
 16 17  2  0
 17 18  1  0
 19 20  1  0
 20 21  1  0
 21 22  1  0
 21 34  1  0
 22 23  2  0
 22 33  1  0
 23 24  1  0
 24 25  2  0
 25 26  1  0
 25 32  1  0
 26 27  1  0
 26 30  1  0
 26 31  1  0
 27 28  2  0
 27 29  1  0
 30 31  1  0
 32 33  2  0
 34 35  1  0
  1 36  1  0
  1 37  1  0
  1 38  1  0
  2 39  1  0
  3 40  1  0
  3 41  1  0
  3 42  1  0
  5 43  1  0
  6 44  1  0
  7 45  1  0
  8 46  1  0
 13 47  1  0
 15 48  1  0
 16 49  1  0
 19 50  1  0
 19 51  1  0
 20 52  1  0
 20 53  1  0
 23 54  1  0
 24 55  1  0
 29 56  1  0
 30 57  1  0
 30 58  1  0
 31 59  1  0
 31 60  1  0
 32 61  1  0
 33 62  1  0
 34 63  1  0
 34 64  1  0
 35 65  1  0
 35 66  1  0
M  END
> <Name>
Molecule

> <AbsoluteEnergy>
64.978

> <Clean Energy>
221.807

> <ConfNumber>
79

> <MOL_NUMBER>
3

> <RelativeEnergy>
19.7962

> <POSE_NUMBER>
1

> <LibDockScore>
143.2503

> <HotSpots>
2.27,-24.92,52.19,A,58,3
2.67,-23.92,48.98,A,32,5
-3.33,-32.52,56.19,P,67,29

$$$$
Molecule
  SciTegic05072616053D

 66 70  0  0  0  0            999 V2000
   -2.0852  -24.8527   47.2394 C   0  0  0  1  0  0
   -3.5866  -25.0773   47.5135 C   0  0  0  1  0  0
   -4.3466  -24.9926   46.1680 C   0  0  0  1  0  0
   -4.1018  -24.1803   48.6286 C   0  0  0  1  0  0
   -5.1685  -23.3040   48.2996 C   0  0  0  1  0  0
   -5.7147  -22.4155   49.2279 C   0  0  0  1  0  0
   -5.1946  -22.3655   50.5174 C   0  0  0  1  0  0
   -4.1388  -23.2097   50.8733 C   0  0  0  1  0  0
   -3.5720  -24.1544   49.9737 C   0  0  0  1  0  0
   -2.4202  -25.0314   50.5333 C   0  0  0  1  0  0
   -1.0689  -24.3651   50.2191 C   0  0  0  1  0  0
   -1.0151  -23.3609   49.5428 O   0  0  0  1  0  0
    0.1049  -24.9023   50.7058 N   0  0  0  1  0  0
    1.4407  -24.3825   50.3554 C   0  0  0  1  0  0
    2.6290  -24.8780   50.8704 C   0  0  0  1  0  0
    3.6048  -24.0897   50.2691 C   0  0  0  1  0  0
    3.0106  -23.1809   49.4433 N   0  0  0  1  0  0
    1.7090  -23.3604   49.4965 O   0  0  0  1  0  0
   -2.4160  -26.5190   50.0543 C   0  0  0  1  0  0
   -3.6915  -27.3003   50.4420 C   0  0  0  1  0  0
   -3.8546  -27.2910   51.9227 N   0  0  0  1  0  0
   -4.0201  -28.4598   52.6571 C   0  0  0  1  0  0
   -4.7355  -29.5544   52.1227 C   0  0  0  1  0  0
   -4.8882  -30.7399   52.8603 C   0  0  0  1  0  0
   -4.3290  -30.8490   54.1468 C   0  0  0  1  0  0
   -4.4793  -32.1245   54.9403 C   0  0  0  1  0  0
   -3.8471  -33.3221   54.2459 C   0  0  0  1  0  0
   -4.0851  -33.5216   53.0765 O   0  0  0  1  0  0
   -3.0425  -34.1204   54.9470 O   0  0  0  1  0  0
   -5.7278  -32.3339   55.7852 C   0  0  0  1  0  0
   -4.4037  -32.0657   56.4580 C   0  0  0  1  0  0
   -3.6198  -29.7633   54.6902 C   0  0  0  1  0  0
   -3.4662  -28.5799   53.9525 C   0  0  0  1  0  0
   -3.7855  -25.9426   52.5563 C   0  0  0  1  0  0
   -2.5139  -25.2025   52.0958 C   0  0  0  1  0  0
   -1.9297  -23.8683   46.7980 H   0  0
   -1.7102  -25.6214   46.5637 H   0  0
   -1.5395  -24.9103   48.1812 H   0  0
   -3.7680  -26.0761   47.9104 H   0  0
   -3.9847  -25.7621   45.4861 H   0  0
   -4.2042  -24.0090   45.7204 H   0  0
   -5.4098  -25.1500   46.3497 H   0  0
   -5.5750  -23.3253   47.2884 H   0  0
   -6.5426  -21.7657   48.9444 H   0  0
   -5.6090  -21.6704   51.2476 H   0  0
   -3.7329  -23.1411   51.8826 H   0  0
    0.0435  -25.7381   51.3710 H   0  0
    2.7663  -25.6939   51.5800 H   0  0
    4.6784  -24.1837   50.4325 H   0  0
   -2.3068  -26.5401   48.9700 H   0  0
   -1.5504  -27.0256   50.4812 H   0  0
   -4.5595  -26.8310   49.9790 H   0  0
   -3.6079  -28.3297   50.0934 H   0  0
   -5.1736  -29.4782   51.1275 H   0  0
   -5.4412  -31.5774   52.4350 H   0  0
   -3.6183  -34.4425   55.7638 H   0  0
   -6.0011  -33.3876   55.8405 H   0  0
   -6.3646  -31.4492   55.7827 H   0  0
   -4.3350  -31.0384   56.8158 H   0  0
   -3.9709  -32.9764   56.8721 H   0  0
   -3.1879  -29.8413   55.6879 H   0  0
   -2.9140  -27.7442   54.3825 H   0  0
   -3.7666  -26.0521   53.6406 H   0  0
   -4.6637  -25.3635   52.2708 H   0  0
   -2.4915  -24.2177   52.5624 H   0  0
   -1.6402  -25.7532   52.4443 H   0  0
  1  2  1  0
  2  3  1  0
  2  4  1  0
  4  5  2  0
  4  9  1  0
  5  6  1  0
  6  7  2  0
  7  8  1  0
  8  9  2  0
  9 10  1  0
 10 11  1  0
 10 19  1  0
 10 35  1  0
 11 12  2  0
 11 13  1  0
 13 14  1  0
 14 15  2  0
 14 18  1  0
 15 16  1  0
 16 17  2  0
 17 18  1  0
 19 20  1  0
 20 21  1  0
 21 22  1  0
 21 34  1  0
 22 23  2  0
 22 33  1  0
 23 24  1  0
 24 25  2  0
 25 26  1  0
 25 32  1  0
 26 27  1  0
 26 30  1  0
 26 31  1  0
 27 28  2  0
 27 29  1  0
 30 31  1  0
 32 33  2  0
 34 35  1  0
  1 36  1  0
  1 37  1  0
  1 38  1  0
  2 39  1  0
  3 40  1  0
  3 41  1  0
  3 42  1  0
  5 43  1  0
  6 44  1  0
  7 45  1  0
  8 46  1  0
 13 47  1  0
 15 48  1  0
 16 49  1  0
 19 50  1  0
 19 51  1  0
 20 52  1  0
 20 53  1  0
 23 54  1  0
 24 55  1  0
 29 56  1  0
 30 57  1  0
 30 58  1  0
 31 59  1  0
 31 60  1  0
 32 61  1  0
 33 62  1  0
 34 63  1  0
 34 64  1  0
 35 65  1  0
 35 66  1  0
M  END
> <Name>
Molecule

> <AbsoluteEnergy>
55.1096

> <Clean Energy>
221.807

> <ConfNumber>
33

> <MOL_NUMBER>
3

> <RelativeEnergy>
9.92769

> <POSE_NUMBER>
2

> <LibDockScore>
135.9613

> <HotSpots>
-4.93,-23.52,47.59,A,26,6
2.27,-24.92,52.19,A,58,15
-3.33,-32.52,56.19,P,67,29

$$$$
Molecule
  SciTegic05072616053D

 66 70  0  0  0  0            999 V2000
   -2.0888  -24.9750   47.2612 C   0  0  0  1  0  0
   -3.6059  -25.0856   47.5181 C   0  0  0  1  0  0
   -4.3419  -24.9456   46.1640 C   0  0  0  1  0  0
   -4.0649  -24.1510   48.6269 C   0  0  0  1  0  0
   -5.1204  -23.2570   48.3101 C   0  0  0  1  0  0
   -5.6164  -22.3344   49.2334 C   0  0  0  1  0  0
   -5.0552  -22.2675   50.5049 C   0  0  0  1  0  0
   -4.0091  -23.1286   50.8482 C   0  0  0  1  0  0
   -3.4929  -24.1071   49.9542 C   0  0  0  1  0  0
   -2.3452  -24.9987   50.4988 C   0  0  0  1  0  0
   -0.9898  -24.3472   50.1716 C   0  0  0  1  0  0
   -0.9284  -23.3678   49.4603 O   0  0  0  1  0  0
    0.1789  -24.8693   50.6861 N   0  0  0  1  0  0
    1.5180  -24.3571   50.3372 C   0  0  0  1  0  0
    2.6914  -24.7588   50.9574 C   0  0  0  1  0  0
    3.6769  -24.0183   50.3128 C   0  0  0  1  0  0
    3.1025  -23.2257   49.3627 N   0  0  0  1  0  0
    1.8040  -23.4327   49.3790 O   0  0  0  1  0  0
   -2.3633  -26.4850   50.0161 C   0  0  0  1  0  0
   -3.6434  -27.2527   50.4158 C   0  0  0  1  0  0
   -3.7901  -27.2456   51.8981 N   0  0  0  1  0  0
   -3.9609  -28.4144   52.6314 C   0  0  0  1  0  0
   -4.7256  -29.4852   52.1173 C   0  0  0  1  0  0
   -4.8840  -30.6710   52.8531 C   0  0  0  1  0  0
   -4.2812  -30.8043   54.1175 C   0  0  0  1  0  0
   -4.4376  -32.0806   54.9086 C   0  0  0  1  0  0
   -3.8257  -33.2829   54.2041 C   0  0  0  1  0  0
   -4.0924  -33.4866   53.0417 O   0  0  0  1  0  0
   -3.0066  -34.0806   54.8890 O   0  0  0  1  0  0
   -5.6798  -32.2789   55.7653 C   0  0  0  1  0  0
   -4.3461  -32.0274   56.4256 C   0  0  0  1  0  0
   -3.5226  -29.7423   54.6407 C   0  0  0  1  0  0
   -3.3634  -28.5585   53.9047 C   0  0  0  1  0  0
   -3.6986  -25.8998   52.5344 C   0  0  0  1  0  0
   -2.4237  -25.1730   52.0619 C   0  0  0  1  0  0
   -1.8546  -24.0056   46.8213 H   0  0
   -1.7651  -25.7706   46.5901 H   0  0
   -1.5598  -25.0723   48.2092 H   0  0
   -3.8664  -26.0675   47.9133 H   0  0
   -4.0312  -25.7410   45.4866 H   0  0
   -4.1208  -23.9761   45.7177 H   0  0
   -5.4159  -25.0223   46.3336 H   0  0
   -5.5586  -23.2917   47.3127 H   0  0
   -6.4373  -21.6714   48.9601 H   0  0
   -5.4301  -21.5460   51.2308 H   0  0
   -3.5705  -23.0468   51.8427 H   0  0
    0.1109  -25.6870   51.3729 H   0  0
    2.8130  -25.4846   51.7615 H   0  0
    4.7435  -24.0643   50.5329 H   0  0
   -2.2662  -26.5045   48.9306 H   0  0
   -1.4989  -27.0025   50.4322 H   0  0
   -4.5110  -26.7722   49.9636 H   0  0
   -3.5754  -28.2820   50.0636 H   0  0
   -5.1976  -29.3901   51.1394 H   0  0
   -5.4753  -31.4900   52.4437 H   0  0
   -3.5634  -34.3977   55.7208 H   0  0
   -5.9642  -33.3297   55.8202 H   0  0
   -6.3067  -31.3873   55.7719 H   0  0
   -4.2625  -31.0020   56.7858 H   0  0
   -3.9193  -32.9441   56.8325 H   0  0
   -3.0567  -29.8391   55.6213 H   0  0
   -2.7729  -27.7413   54.3189 H   0  0
   -3.6691  -26.0125   53.6182 H   0  0
   -4.5732  -25.3100   52.2600 H   0  0
   -2.3849  -24.1898   52.5308 H   0  0
   -1.5526  -25.7346   52.3993 H   0  0
  1  2  1  0
  2  3  1  0
  2  4  1  0
  4  5  2  0
  4  9  1  0
  5  6  1  0
  6  7  2  0
  7  8  1  0
  8  9  2  0
  9 10  1  0
 10 11  1  0
 10 19  1  0
 10 35  1  0
 11 12  2  0
 11 13  1  0
 13 14  1  0
 14 15  2  0
 14 18  1  0
 15 16  1  0
 16 17  2  0
 17 18  1  0
 19 20  1  0
 20 21  1  0
 21 22  1  0
 21 34  1  0
 22 23  2  0
 22 33  1  0
 23 24  1  0
 24 25  2  0
 25 26  1  0
 25 32  1  0
 26 27  1  0
 26 30  1  0
 26 31  1  0
 27 28  2  0
 27 29  1  0
 30 31  1  0
 32 33  2  0
 34 35  1  0
  1 36  1  0
  1 37  1  0
  1 38  1  0
  2 39  1  0
  3 40  1  0
  3 41  1  0
  3 42  1  0
  5 43  1  0
  6 44  1  0
  7 45  1  0
  8 46  1  0
 13 47  1  0
 15 48  1  0
 16 49  1  0
 19 50  1  0
 19 51  1  0
 20 52  1  0
 20 53  1  0
 23 54  1  0
 24 55  1  0
 29 56  1  0
 30 57  1  0
 30 58  1  0
 31 59  1  0
 31 60  1  0
 32 61  1  0
 33 62  1  0
 34 63  1  0
 34 64  1  0
 35 65  1  0
 35 66  1  0
M  END
> <Name>
Molecule

> <AbsoluteEnergy>
55.1096

> <Clean Energy>
221.807

> <ConfNumber>
33

> <MOL_NUMBER>
3

> <RelativeEnergy>
9.92769

> <POSE_NUMBER>
3

> <LibDockScore>
135.7406

> <HotSpots>
-4.53,-24.52,46.19,A,17,3
3.07,-24.52,50.38,A,43,15
-3.53,-33.92,53.38,P,44,28

$$$$
Molecule
  SciTegic05072616053D

 66 70  0  0  0  0            999 V2000
   -3.1493  -22.5758   46.9025 C   0  0  0  1  0  0
   -3.7683  -23.8805   47.4421 C   0  0  0  1  0  0
   -4.7690  -24.4179   46.3919 C   0  0  0  1  0  0
   -4.3108  -23.7180   48.8548 C   0  0  0  1  0  0
   -5.4297  -22.8586   49.0138 C   0  0  0  1  0  0
   -6.0104  -22.6190   50.2606 C   0  0  0  1  0  0
   -5.4796  -23.2247   51.3947 C   0  0  0  1  0  0
   -4.3731  -24.0697   51.2754 C   0  0  0  1  0  0
   -3.7612  -24.3637   50.0257 C   0  0  0  1  0  0
   -2.5408  -25.3211   50.0615 C   0  0  0  1  0  0
   -1.3743  -24.6825   49.2858 C   0  0  0  1  0  0
   -1.2979  -23.4786   49.1701 O   0  0  0  1  0  0
   -0.3977  -25.4659   48.7062 N   0  0  0  1  0  0
    0.5799  -24.9378   47.7336 C   0  0  0  1  0  0
    1.5346  -25.7046   47.0815 C   0  0  0  1  0  0
    2.2074  -24.7863   46.2812 C   0  0  0  1  0  0
    1.6691  -23.5462   46.4597 N   0  0  0  1  0  0
    0.6911  -23.6410   47.3337 O   0  0  0  1  0  0
   -2.8144  -26.7714   49.5589 C   0  0  0  1  0  0
   -3.9341  -27.4839   50.3458 C   0  0  0  1  0  0
   -3.6085  -27.5574   51.8040 N   0  0  0  1  0  0
   -3.7869  -28.7195   52.5546 C   0  0  0  1  0  0
   -3.1138  -28.8827   53.7878 C   0  0  0  1  0  0
   -3.2845  -30.0471   54.5544 C   0  0  0  1  0  0
   -4.1348  -31.0708   54.1047 C   0  0  0  1  0  0
   -4.3225  -32.3208   54.9324 C   0  0  0  1  0  0
   -4.8868  -32.0330   56.3136 C   0  0  0  1  0  0
   -5.8356  -32.6732   56.7065 O   0  0  0  1  0  0
   -4.3213  -31.0829   57.0564 O   0  0  0  1  0  0
   -3.3256  -33.4613   54.7909 C   0  0  0  1  0  0
   -4.7247  -33.6185   54.2473 C   0  0  0  1  0  0
   -4.8115  -30.9231   52.8826 C   0  0  0  1  0  0
   -4.6354  -29.7615   52.1111 C   0  0  0  1  0  0
   -3.0908  -26.2986   52.4234 C   0  0  0  1  0  0
   -2.0444  -25.6034   51.5239 C   0  0  0  1  0  0
   -3.9303  -21.8341   46.7349 H   0  0
   -2.6226  -22.7715   45.9685 H   0  0
   -2.4418  -22.1880   47.6354 H   0  0
   -3.0053  -24.6484   47.5698 H   0  0
   -4.2514  -24.6240   45.4550 H   0  0
   -5.5591  -23.6866   46.2214 H   0  0
   -5.2131  -25.3413   46.7636 H   0  0
   -5.8488  -22.3702   48.1341 H   0  0
   -6.8751  -21.9608   50.3449 H   0  0
   -5.9249  -23.0410   52.3725 H   0  0
   -3.9619  -24.5223   52.1777 H   0  0
   -0.3464  -26.5008   48.9730 H   0  0
    1.7153  -26.7755   47.1743 H   0  0
    3.0368  -25.0219   45.6144 H   0  0
   -3.0913  -26.7349   48.5053 H   0  0
   -1.8977  -27.3552   49.6425 H   0  0
   -4.8686  -26.9383   50.2146 H   0  0
   -4.0616  -28.4939   49.9562 H   0  0
   -2.4535  -28.0939   54.1482 H   0  0
   -2.7556  -30.1567   55.5011 H   0  0
   -4.3585  -30.2153   56.4661 H   0  0
   -3.1963  -33.9985   55.7305 H   0  0
   -2.6049  -33.2656   53.9969 H   0  0
   -4.7500  -33.5074   53.1633 H   0  0
   -5.3418  -34.2387   54.8974 H   0  0
   -5.4759  -31.7125   52.5312 H   0  0
   -5.1586  -29.6621   51.1600 H   0  0
   -2.6347  -26.5340   53.3850 H   0  0
   -3.9235  -25.6166   52.5952 H   0  0
   -1.7566  -24.6595   51.9870 H   0  0
   -1.1520  -26.2276   51.4780 H   0  0
  1  2  1  0
  2  3  1  0
  2  4  1  0
  4  5  2  0
  4  9  1  0
  5  6  1  0
  6  7  2  0
  7  8  1  0
  8  9  2  0
  9 10  1  0
 10 11  1  0
 10 19  1  0
 10 35  1  0
 11 12  2  0
 11 13  1  0
 13 14  1  0
 14 15  2  0
 14 18  1  0
 15 16  1  0
 16 17  2  0
 17 18  1  0
 19 20  1  0
 20 21  1  0
 21 22  1  0
 21 34  1  0
 22 23  2  0
 22 33  1  0
 23 24  1  0
 24 25  2  0
 25 26  1  0
 25 32  1  0
 26 27  1  0
 26 30  1  0
 26 31  1  0
 27 28  2  0
 27 29  1  0
 30 31  1  0
 32 33  2  0
 34 35  1  0
  1 36  1  0
  1 37  1  0
  1 38  1  0
  2 39  1  0
  3 40  1  0
  3 41  1  0
  3 42  1  0
  5 43  1  0
  6 44  1  0
  7 45  1  0
  8 46  1  0
 13 47  1  0
 15 48  1  0
 16 49  1  0
 19 50  1  0
 19 51  1  0
 20 52  1  0
 20 53  1  0
 23 54  1  0
 24 55  1  0
 29 56  1  0
 30 57  1  0
 30 58  1  0
 31 59  1  0
 31 60  1  0
 32 61  1  0
 33 62  1  0
 34 63  1  0
 34 64  1  0
 35 65  1  0
 35 66  1  0
M  END
> <Name>
Molecule

> <AbsoluteEnergy>
54.2448

> <Clean Energy>
221.807

> <ConfNumber>
26

> <MOL_NUMBER>
3

> <RelativeEnergy>
9.06296

> <POSE_NUMBER>
4

> <LibDockScore>
135.2576

> <HotSpots>
-6.13,-22.12,49.98,A,41,6
1.87,-25.32,48.38,A,30,15
-4.33,-32.92,55.19,A,75,31

$$$$
Molecule
  SciTegic05072616053D

 66 70  0  0  0  0            999 V2000
   -6.6807  -25.3225   50.8717 C   0  0  0  1  0  0
   -5.3243  -24.5889   50.9322 C   0  0  0  1  0  0
   -5.3283  -23.5100   52.0350 C   0  0  0  1  0  0
   -4.9255  -24.0191   49.5843 C   0  0  0  1  0  0
   -5.8693  -23.1496   48.9873 C   0  0  0  1  0  0
   -5.6145  -22.5185   47.7662 C   0  0  0  1  0  0
   -4.3991  -22.7400   47.1174 C   0  0  0  1  0  0
   -3.4506  -23.6033   47.6821 C   0  0  0  1  0  0
   -3.6869  -24.2934   48.9042 C   0  0  0  1  0  0
   -2.6216  -25.2730   49.4367 C   0  0  0  1  0  0
   -1.1945  -24.9808   48.9061 C   0  0  0  1  0  0
   -0.3531  -24.5125   49.6420 O   0  0  0  1  0  0
   -0.8454  -25.2449   47.5940 N   0  0  0  1  0  0
    0.5324  -25.1041   47.0769 C   0  0  0  1  0  0
    0.9269  -25.4630   45.7964 C   0  0  0  1  0  0
    2.2802  -25.1381   45.7612 C   0  0  0  1  0  0
    2.6540  -24.6195   46.9658 N   0  0  0  1  0  0
    1.6017  -24.6041   47.7567 O   0  0  0  1  0  0
   -2.9420  -26.7562   49.0182 C   0  0  0  1  0  0
   -2.1397  -27.8150   49.7942 C   0  0  0  1  0  0
   -2.2931  -27.5983   51.2579 N   0  0  0  1  0  0
   -2.8697  -28.5377   52.1150 C   0  0  0  1  0  0
   -2.6955  -28.4480   53.5170 C   0  0  0  1  0  0
   -3.2963  -29.3813   54.3806 C   0  0  0  1  0  0
   -4.0946  -30.4169   53.8639 C   0  0  0  1  0  0
   -4.7809  -31.3986   54.7914 C   0  0  0  1  0  0
   -3.9039  -32.5674   55.2292 C   0  0  0  1  0  0
   -3.3203  -32.5107   56.2874 O   0  0  0  1  0  0
   -3.8018  -33.6458   54.4516 O   0  0  0  1  0  0
   -6.2578  -31.6919   54.5701 C   0  0  0  1  0  0
   -5.8302  -30.8744   55.7627 C   0  0  0  1  0  0
   -4.2584  -30.5270   52.4713 C   0  0  0  1  0  0
   -3.6501  -29.6022   51.6076 C   0  0  0  1  0  0
   -1.7960  -26.2715   51.7120 C   0  0  0  1  0  0
   -2.5537  -25.1326   51.0026 C   0  0  0  1  0  0
   -7.4657  -24.5947   50.6664 H   0  0
   -6.8716  -25.7898   51.8378 H   0  0
   -6.6635  -26.0810   50.0891 H   0  0
   -4.5645  -25.3254   51.1939 H   0  0
   -5.5271  -23.9878   52.9943 H   0  0
   -6.1212  -22.7928   51.8230 H   0  0
   -4.3652  -23.0006   52.0663 H   0  0
   -6.8181  -22.9676   49.4920 H   0  0
   -6.3602  -21.8579   47.3239 H   0  0
   -4.1875  -22.2416   46.1714 H   0  0
   -2.5006  -23.7511   47.1685 H   0  0
   -1.6109  -25.5673   46.9195 H   0  0
    0.3192  -25.8979   45.0029 H   0  0
    2.9388  -25.2767   44.9038 H   0  0
   -2.7392  -26.8742   47.9537 H   0  0
   -4.0053  -26.9425   49.1690 H   0  0
   -1.0857  -27.7402   49.5266 H   0  0
   -2.5061  -28.8085   49.5356 H   0  0
   -2.0874  -27.6446   53.9328 H   0  0
   -3.1422  -29.3013   55.4567 H   0  0
   -3.4725  -33.2770   53.5253 H   0  0
   -6.5090  -32.7144   54.8519 H   0  0
   -6.6753  -31.0660   53.7814 H   0  0
   -6.0194  -29.8117   55.6113 H   0  0
   -5.8515  -31.4605   56.6815 H   0  0
   -4.8619  -31.3360   52.0597 H   0  0
   -3.7813  -29.7063   50.5305 H   0  0
   -1.9391  -26.1827   52.7889 H   0  0
   -0.7322  -26.1890   51.4892 H   0  0
   -2.0727  -24.1862   51.2496 H   0  0
   -3.5691  -25.0905   51.3966 H   0  0
  1  2  1  0
  2  3  1  0
  2  4  1  0
  4  5  2  0
  4  9  1  0
  5  6  1  0
  6  7  2  0
  7  8  1  0
  8  9  2  0
  9 10  1  0
 10 11  1  0
 10 19  1  0
 10 35  1  0
 11 12  2  0
 11 13  1  0
 13 14  1  0
 14 15  2  0
 14 18  1  0
 15 16  1  0
 16 17  2  0
 17 18  1  0
 19 20  1  0
 20 21  1  0
 21 22  1  0
 21 34  1  0
 22 23  2  0
 22 33  1  0
 23 24  1  0
 24 25  2  0
 25 26  1  0
 25 32  1  0
 26 27  1  0
 26 30  1  0
 26 31  1  0
 27 28  2  0
 27 29  1  0
 30 31  1  0
 32 33  2  0
 34 35  1  0
  1 36  1  0
  1 37  1  0
  1 38  1  0
  2 39  1  0
  3 40  1  0
  3 41  1  0
  3 42  1  0
  5 43  1  0
  6 44  1  0
  7 45  1  0
  8 46  1  0
 13 47  1  0
 15 48  1  0
 16 49  1  0
 19 50  1  0
 19 51  1  0
 20 52  1  0
 20 53  1  0
 23 54  1  0
 24 55  1  0
 29 56  1  0
 30 57  1  0
 30 58  1  0
 31 59  1  0
 31 60  1  0
 32 61  1  0
 33 62  1  0
 34 63  1  0
 34 64  1  0
 35 65  1  0
 35 66  1  0
M  END
> <Name>
Molecule

> <AbsoluteEnergy>
49.3599

> <Clean Energy>
221.807

> <ConfNumber>
10

> <MOL_NUMBER>
3

> <RelativeEnergy>
4.17803

> <POSE_NUMBER>
5

> <LibDockScore>
132.5722

> <HotSpots>
-5.53,-22.92,48.98,A,33,5
2.67,-25.52,46.78,P,25,17
-3.33,-32.52,56.19,P,67,29

$$$$
Molecule
  SciTegic05072616053D

 66 70  0  0  0  0            999 V2000
   -2.7518  -25.7366   46.8716 C   0  0  0  1  0  0
   -2.5932  -24.2749   47.3146 C   0  0  0  1  0  0
   -1.1353  -23.7763   47.2725 C   0  0  0  1  0  0
   -3.4119  -23.7807   48.5128 C   0  0  0  1  0  0
   -4.3195  -22.7401   48.1852 C   0  0  0  1  0  0
   -5.1254  -22.1212   49.1428 C   0  0  0  1  0  0
   -5.0380  -22.5204   50.4722 C   0  0  0  1  0  0
   -4.1599  -23.5475   50.8326 C   0  0  0  1  0  0
   -3.3502  -24.2316   49.8885 C   0  0  0  1  0  0
   -2.4794  -25.3892   50.4165 C   0  0  0  1  0  0
   -1.0302  -25.2557   49.9375 C   0  0  0  1  0  0
   -0.5600  -26.0764   49.1820 O   0  0  0  1  0  0
   -0.2459  -24.2085   50.3815 N   0  0  0  1  0  0
    1.1475  -24.0100   49.9333 C   0  0  0  1  0  0
    2.0402  -23.1180   50.5075 C   0  0  0  1  0  0
    3.1986  -23.2775   49.7518 C   0  0  0  1  0  0
    2.9870  -24.2170   48.7861 N   0  0  0  1  0  0
    1.7533  -24.6574   48.8998 O   0  0  0  1  0  0
   -3.1063  -26.7597   49.9977 C   0  0  0  1  0  0
   -4.3272  -27.1828   50.8211 C   0  0  0  1  0  0
   -3.9539  -27.3297   52.2460 N   0  0  0  1  0  0
   -4.0815  -28.5287   52.9452 C   0  0  0  1  0  0
   -3.3752  -28.7424   54.1507 C   0  0  0  1  0  0
   -3.5054  -29.9515   54.8540 C   0  0  0  1  0  0
   -4.3458  -30.9676   54.3660 C   0  0  0  1  0  0
   -4.4860  -32.2676   55.1216 C   0  0  0  1  0  0
   -3.6888  -33.4006   54.4954 C   0  0  0  1  0  0
   -3.8094  -33.6196   53.3114 O   0  0  0  1  0  0
   -2.8785  -34.1237   55.2665 O   0  0  0  1  0  0
   -5.8126  -32.6048   55.7844 C   0  0  0  1  0  0
   -4.6215  -32.2378   56.6362 C   0  0  0  1  0  0
   -5.0521  -30.7662   53.1676 C   0  0  0  1  0  0
   -4.9195  -29.5599   52.4619 C   0  0  0  1  0  0
   -3.4247  -26.0896   52.8608 C   0  0  0  1  0  0
   -2.3059  -25.4529   51.9920 C   0  0  0  1  0  0
   -2.1351  -26.3511   47.5275 H   0  0
   -2.3652  -25.8195   45.8558 H   0  0
   -3.7942  -26.0524   46.9146 H   0  0
   -3.1211  -23.7512   46.5176 H   0  0
   -0.7746  -23.8906   46.2503 H   0  0
   -0.5445  -24.4222   47.9220 H   0  0
   -1.0633  -22.7370   47.5931 H   0  0
   -4.3900  -22.4120   47.1481 H   0  0
   -5.8176  -21.3314   48.8508 H   0  0
   -5.6518  -22.0344   51.2306 H   0  0
   -4.0946  -23.8346   51.8821 H   0  0
   -0.6649  -23.5130   51.0784 H   0  0
    1.8742  -22.4491   51.3520 H   0  0
    4.1310  -22.7350   49.9079 H   0  0
   -3.3953  -26.7065   48.9481 H   0  0
   -2.3443  -27.5346   50.0813 H   0  0
   -5.1064  -26.4263   50.7281 H   0  0
   -4.7052  -28.1343   50.4471 H   0  0
   -2.7224  -27.9606   54.5389 H   0  0
   -2.9529  -30.1025   55.7814 H   0  0
   -3.4916  -34.4975   56.0326 H   0  0
   -5.9954  -33.6794   55.7901 H   0  0
   -6.5201  -31.7794   55.7050 H   0  0
   -4.6946  -31.2170   57.0114 H   0  0
   -4.1689  -33.1168   57.0952 H   0  0
   -5.7056  -31.5500   52.7845 H   0  0
   -5.4685  -29.4167   51.5312 H   0  0
   -3.0231  -26.3216   53.8472 H   0  0
   -4.2380  -25.3734   52.9780 H   0  0
   -2.1400  -24.4383   52.3541 H   0  0
   -1.3765  -25.9804   52.2067 H   0  0
  1  2  1  0
  2  3  1  0
  2  4  1  0
  4  5  2  0
  4  9  1  0
  5  6  1  0
  6  7  2  0
  7  8  1  0
  8  9  2  0
  9 10  1  0
 10 11  1  0
 10 19  1  0
 10 35  1  0
 11 12  2  0
 11 13  1  0
 13 14  1  0
 14 15  2  0
 14 18  1  0
 15 16  1  0
 16 17  2  0
 17 18  1  0
 19 20  1  0
 20 21  1  0
 21 22  1  0
 21 34  1  0
 22 23  2  0
 22 33  1  0
 23 24  1  0
 24 25  2  0
 25 26  1  0
 25 32  1  0
 26 27  1  0
 26 30  1  0
 26 31  1  0
 27 28  2  0
 27 29  1  0
 30 31  1  0
 32 33  2  0
 34 35  1  0
  1 36  1  0
  1 37  1  0
  1 38  1  0
  2 39  1  0
  3 40  1  0
  3 41  1  0
  3 42  1  0
  5 43  1  0
  6 44  1  0
  7 45  1  0
  8 46  1  0
 13 47  1  0
 15 48  1  0
 16 49  1  0
 19 50  1  0
 19 51  1  0
 20 52  1  0
 20 53  1  0
 23 54  1  0
 24 55  1  0
 29 56  1  0
 30 57  1  0
 30 58  1  0
 31 59  1  0
 31 60  1  0
 32 61  1  0
 33 62  1  0
 34 63  1  0
 34 64  1  0
 35 65  1  0
 35 66  1  0
M  END
> <Name>
Molecule

> <AbsoluteEnergy>
58.2874

> <Clean Energy>
221.807

> <ConfNumber>
48

> <MOL_NUMBER>
3

> <RelativeEnergy>
13.1056

> <POSE_NUMBER>
6

> <LibDockScore>
132.1542

> <HotSpots>
-0.93,-23.32,46.98,A,25,3
-4.73,-22.32,50.38,A,46,7
-3.33,-32.52,56.19,P,67,29

$$$$
Molecule
  SciTegic05072616053D

 66 70  0  0  0  0            999 V2000
   -3.3970  -22.9575   46.6597 C   0  0  0  1  0  0
   -3.9030  -24.1370   47.5201 C   0  0  0  1  0  0
   -4.8176  -25.0581   46.6820 C   0  0  0  1  0  0
   -4.5597  -23.6962   48.8122 C   0  0  0  1  0  0
   -5.7220  -22.8966   48.6980 C   0  0  0  1  0  0
   -6.3322  -22.3319   49.8257 C   0  0  0  1  0  0
   -5.7812  -22.5561   51.0898 C   0  0  0  1  0  0
   -4.6678  -23.3946   51.2290 C   0  0  0  1  0  0
   -4.0575  -24.0318   50.1153 C   0  0  0  1  0  0
   -2.9002  -25.0342   50.3509 C   0  0  0  1  0  0
   -1.5794  -24.5939   49.6788 C   0  0  0  1  0  0
   -0.6252  -25.3339   49.7854 O   0  0  0  1  0  0
   -1.4636  -23.4116   48.9526 N   0  0  0  1  0  0
   -0.4675  -23.1414   47.8879 C   0  0  0  1  0  0
    0.5479  -23.9866   47.4462 C   0  0  0  1  0  0
    1.1553  -23.2705   46.4186 C   0  0  0  1  0  0
    0.5447  -22.0576   46.2826 N   0  0  0  1  0  0
   -0.4215  -21.9738   47.1759 O   0  0  0  1  0  0
   -2.5958  -25.2160   51.8907 C   0  0  0  1  0  0
   -1.7458  -26.4386   52.2956 C   0  0  0  1  0  0
   -2.3669  -27.6750   51.7595 N   0  0  0  1  0  0
   -2.8250  -28.7244   52.5542 C   0  0  0  1  0  0
   -3.7289  -29.6812   52.0339 C   0  0  0  1  0  0
   -4.1968  -30.7342   52.8332 C   0  0  0  1  0  0
   -3.7778  -30.8500   54.1653 C   0  0  0  1  0  0
   -4.3100  -31.9702   55.0238 C   0  0  0  1  0  0
   -3.8885  -33.3504   54.5333 C   0  0  0  1  0  0
   -4.3078  -33.7107   53.4610 O   0  0  0  1  0  0
   -3.0825  -34.1254   55.2658 O   0  0  0  1  0  0
   -5.7289  -31.8603   55.5758 C   0  0  0  1  0  0
   -4.5543  -31.7304   56.5058 C   0  0  0  1  0  0
   -2.8697  -29.9117   54.6923 C   0  0  0  1  0  0
   -2.4003  -28.8553   53.8966 C   0  0  0  1  0  0
   -2.4967  -27.6699   50.2887 C   0  0  0  1  0  0
   -3.3274  -26.4598   49.8228 C   0  0  0  1  0  0
   -4.2519  -22.3875   46.2960 H   0  0
   -2.8381  -23.3488   45.8096 H   0  0
   -2.7528  -22.3125   47.2573 H   0  0
   -3.0290  -24.7107   47.8286 H   0  0
   -4.2547  -25.4435   45.8319 H   0  0
   -5.6685  -24.4822   46.3182 H   0  0
   -5.1705  -25.8873   47.2952 H   0  0
   -6.1512  -22.7164   47.7124 H   0  0
   -7.2295  -21.7226   49.7177 H   0  0
   -6.2175  -22.0788   51.9673 H   0  0
   -4.2562  -23.5638   52.2240 H   0  0
   -2.1550  -22.6282   49.1833 H   0  0
    0.8066  -24.9778   47.8185 H   0  0
    1.9909  -23.6244   45.8148 H   0  0
   -2.0949  -24.3174   52.2508 H   0  0
   -3.5439  -25.2670   52.4261 H   0  0
   -0.7400  -26.3325   51.8891 H   0  0
   -1.6929  -26.5016   53.3825 H   0  0
   -4.0651  -29.5987   51.0003 H   0  0
   -4.8893  -31.4656   52.4165 H   0  0
   -3.5748  -34.2070   56.1896 H   0  0
   -6.2019  -32.8390   55.6569 H   0  0
   -6.1713  -30.8910   55.3459 H   0  0
   -4.3686  -30.6916   56.7787 H   0  0
   -4.3981  -32.6385   57.0882 H   0  0
   -2.5296  -30.0064   55.7235 H   0  0
   -1.7031  -28.1302   54.3165 H   0  0
   -2.9865  -28.5886   49.9659 H   0  0
   -1.5048  -27.6204   49.8395 H   0  0
   -3.3160  -26.4397   48.7330 H   0  0
   -4.3661  -26.6321   50.1048 H   0  0
  1  2  1  0
  2  3  1  0
  2  4  1  0
  4  5  2  0
  4  9  1  0
  5  6  1  0
  6  7  2  0
  7  8  1  0
  8  9  2  0
  9 10  1  0
 10 11  1  0
 10 19  1  0
 10 35  1  0
 11 12  2  0
 11 13  1  0
 13 14  1  0
 14 15  2  0
 14 18  1  0
 15 16  1  0
 16 17  2  0
 17 18  1  0
 19 20  1  0
 20 21  1  0
 21 22  1  0
 21 34  1  0
 22 23  2  0
 22 33  1  0
 23 24  1  0
 24 25  2  0
 25 26  1  0
 25 32  1  0
 26 27  1  0
 26 30  1  0
 26 31  1  0
 27 28  2  0
 27 29  1  0
 30 31  1  0
 32 33  2  0
 34 35  1  0
  1 36  1  0
  1 37  1  0
  1 38  1  0
  2 39  1  0
  3 40  1  0
  3 41  1  0
  3 42  1  0
  5 43  1  0
  6 44  1  0
  7 45  1  0
  8 46  1  0
 13 47  1  0
 15 48  1  0
 16 49  1  0
 19 50  1  0
 19 51  1  0
 20 52  1  0
 20 53  1  0
 23 54  1  0
 24 55  1  0
 29 56  1  0
 30 57  1  0
 30 58  1  0
 31 59  1  0
 31 60  1  0
 32 61  1  0
 33 62  1  0
 34 63  1  0
 34 64  1  0
 35 65  1  0
 35 66  1  0
M  END
> <Name>
Molecule

> <AbsoluteEnergy>
54.6003

> <Clean Energy>
221.807

> <ConfNumber>
28

> <MOL_NUMBER>
3

> <RelativeEnergy>
9.41845

> <POSE_NUMBER>
7

> <LibDockScore>
132.0053

> <HotSpots>
-4.73,-22.32,50.38,A,46,7
-4.93,-33.72,54.59,P,51,28
-4.13,-31.12,56.59,A,79,31

$$$$
Molecule
  SciTegic05072616053D

 66 70  0  0  0  0            999 V2000
    2.0299  -25.5585   46.5266 C   0  0  0  1  0  0
    0.8283  -24.9732   47.3061 C   0  0  0  1  0  0
    0.3244  -23.7250   46.5547 C   0  0  0  1  0  0
    1.0665  -24.7127   48.7910 C   0  0  0  1  0  0
    2.4150  -24.5132   49.1873 C   0  0  0  1  0  0
    2.7743  -24.2793   50.5149 C   0  0  0  1  0  0
    1.7872  -24.2132   51.4919 C   0  0  0  1  0  0
    0.4476  -24.3791   51.1348 C   0  0  0  1  0  0
    0.0309  -24.6514   49.8008 C   0  0  0  1  0  0
   -1.4952  -24.8328   49.5536 C   0  0  0  1  0  0
   -1.9804  -23.6955   48.6381 C   0  0  0  1  0  0
   -1.4061  -22.6293   48.6300 O   0  0  0  1  0  0
   -3.0648  -23.8650   47.8078 N   0  0  0  1  0  0
   -3.5092  -22.8457   46.8402 C   0  0  0  1  0  0
   -4.6692  -22.9383   46.0882 C   0  0  0  1  0  0
   -4.6701  -21.7684   45.3362 C   0  0  0  1  0  0
   -3.5628  -21.0322   45.6391 N   0  0  0  1  0  0
   -2.8661  -21.6838   46.5450 O   0  0  0  1  0  0
   -1.8128  -26.2596   48.9589 C   0  0  0  1  0  0
   -3.1952  -26.9136   49.1978 C   0  0  0  1  0  0
   -3.6491  -26.6796   50.5838 N   0  0  0  1  0  0
   -3.8936  -27.7019   51.4936 C   0  0  0  1  0  0
   -3.6140  -29.0489   51.1715 C   0  0  0  1  0  0
   -3.7782  -30.0622   52.1300 C   0  0  0  1  0  0
   -4.2384  -29.7445   53.4199 C   0  0  0  1  0  0
   -4.3438  -30.8069   54.4862 C   0  0  0  1  0  0
   -3.2781  -30.6402   55.5656 C   0  0  0  1  0  0
   -2.8255  -31.6214   56.1102 O   0  0  0  1  0  0
   -2.8667  -29.4099   55.8841 O   0  0  0  1  0  0
   -4.8272  -32.1992   54.1076 C   0  0  0  1  0  0
   -5.7203  -31.2877   54.9155 C   0  0  0  1  0  0
   -4.5859  -28.4190   53.7264 C   0  0  0  1  0  0
   -4.4118  -27.4062   52.7739 C   0  0  0  1  0  0
   -3.7283  -25.2465   50.9282 C   0  0  0  1  0  0
   -2.3057  -24.6767   50.9003 C   0  0  0  1  0  0
    2.8322  -24.8228   46.4695 H   0  0
    1.7200  -25.8428   45.5210 H   0  0
    2.3953  -26.4427   47.0490 H   0  0
    0.0554  -25.7414   47.3295 H   0  0
    0.0042  -23.9982   45.5493 H   0  0
    1.1163  -22.9782   46.4978 H   0  0
   -0.5231  -23.3034   47.0951 H   0  0
    3.1966  -24.5438   48.4282 H   0  0
    3.8224  -24.1492   50.7846 H   0  0
    2.0580  -24.0326   52.5322 H   0  0
   -0.3127  -24.2965   51.9115 H   0  0
   -3.6125  -24.7822   47.8676 H   0  0
   -5.4078  -23.7399   46.0864 H   0  0
   -5.4372  -21.4839   44.6160 H   0  0
   -1.6488  -26.2164   47.8822 H   0  0
   -1.0527  -26.9507   49.3231 H   0  0
   -3.9206  -26.4872   48.5050 H   0  0
   -3.1235  -27.9865   49.0194 H   0  0
   -3.2677  -29.3040   50.1699 H   0  0
   -3.5485  -31.0964   51.8735 H   0  0
   -3.7382  -28.8921   56.1576 H   0  0
   -4.3662  -32.9658   54.7304 H   0  0
   -5.1372  -32.2442   53.0636 H   0  0
   -6.5071  -30.8488   54.3020 H   0  0
   -5.7351  -31.5691   55.9685 H   0  0
   -4.9924  -28.1772   54.7084 H   0  0
   -4.6791  -26.3794   53.0235 H   0  0
   -4.1499  -25.1301   51.9266 H   0  0
   -4.3458  -24.7260   50.1962 H   0  0
   -2.3582  -23.6170   51.1502 H   0  0
   -1.7348  -25.1459   51.7015 H   0  0
  1  2  1  0
  2  3  1  0
  2  4  1  0
  4  5  2  0
  4  9  1  0
  5  6  1  0
  6  7  2  0
  7  8  1  0
  8  9  2  0
  9 10  1  0
 10 11  1  0
 10 19  1  0
 10 35  1  0
 11 12  2  0
 11 13  1  0
 13 14  1  0
 14 15  2  0
 14 18  1  0
 15 16  1  0
 16 17  2  0
 17 18  1  0
 19 20  1  0
 20 21  1  0
 21 22  1  0
 21 34  1  0
 22 23  2  0
 22 33  1  0
 23 24  1  0
 24 25  2  0
 25 26  1  0
 25 32  1  0
 26 27  1  0
 26 30  1  0
 26 31  1  0
 27 28  2  0
 27 29  1  0
 30 31  1  0
 32 33  2  0
 34 35  1  0
  1 36  1  0
  1 37  1  0
  1 38  1  0
  2 39  1  0
  3 40  1  0
  3 41  1  0
  3 42  1  0
  5 43  1  0
  6 44  1  0
  7 45  1  0
  8 46  1  0
 13 47  1  0
 15 48  1  0
 16 49  1  0
 19 50  1  0
 19 51  1  0
 20 52  1  0
 20 53  1  0
 23 54  1  0
 24 55  1  0
 29 56  1  0
 30 57  1  0
 30 58  1  0
 31 59  1  0
 31 60  1  0
 32 61  1  0
 33 62  1  0
 34 63  1  0
 34 64  1  0
 35 65  1  0
 35 66  1  0
M  END
> <Name>
Molecule

> <AbsoluteEnergy>
60.3522

> <Clean Energy>
221.807

> <ConfNumber>
61

> <MOL_NUMBER>
3

> <RelativeEnergy>
15.1704

> <POSE_NUMBER>
8

> <LibDockScore>
131.0104

> <HotSpots>
0.27,-24.92,46.38,A,19,3
1.67,-24.32,50.98,A,50,6
-4.93,-21.52,45.19,A,11,16

$$$$
Molecule
  SciTegic05072616053D

 66 70  0  0  0  0            999 V2000
   -2.3409  -23.2127   46.8624 C   0  0  0  1  0  0
   -3.4017  -24.1778   47.4210 C   0  0  0  1  0  0
   -4.2316  -24.8263   46.2953 C   0  0  0  1  0  0
   -4.2653  -23.5121   48.4673 C   0  0  0  1  0  0
   -5.1456  -22.5086   48.0021 C   0  0  0  1  0  0
   -5.9966  -21.8234   48.8732 C   0  0  0  1  0  0
   -5.9791  -22.1279   50.2351 C   0  0  0  1  0  0
   -5.1095  -23.1128   50.7206 C   0  0  0  1  0  0
   -4.2322  -23.8329   49.8654 C   0  0  0  1  0  0
   -3.2940  -24.8994   50.4604 C   0  0  0  1  0  0
   -1.8473  -24.3849   50.3923 C   0  0  0  1  0  0
   -1.5802  -23.3619   50.9806 O   0  0  0  1  0  0
   -0.8510  -25.0393   49.6961 N   0  0  0  1  0  0
    0.5660  -24.6190   49.6603 C   0  0  0  1  0  0
    1.1773  -23.6236   50.4159 C   0  0  0  1  0  0
    2.5010  -23.6477   49.9876 C   0  0  0  1  0  0
    2.6541  -24.6072   49.0336 N   0  0  0  1  0  0
    1.4915  -25.1876   48.8398 O   0  0  0  1  0  0
   -3.5358  -25.1287   51.9900 C   0  0  0  1  0  0
   -2.6945  -26.2590   52.6051 C   0  0  0  1  0  0
   -2.9897  -27.5512   51.9265 N   0  0  0  1  0  0
   -3.3326  -28.7015   52.6361 C   0  0  0  1  0  0
   -4.0933  -29.7347   52.0394 C   0  0  0  1  0  0
   -4.4333  -30.8895   52.7633 C   0  0  0  1  0  0
   -4.0290  -31.0304   54.1027 C   0  0  0  1  0  0
   -4.4083  -32.2652   54.8881 C   0  0  0  1  0  0
   -5.5398  -32.0215   55.8814 C   0  0  0  1  0  0
   -5.7407  -30.8985   56.2840 O   0  0  0  1  0  0
   -6.2832  -33.0510   56.2865 O   0  0  0  1  0  0
   -3.3256  -33.2579   55.2854 C   0  0  0  1  0  0
   -4.3127  -33.6215   54.2032 C   0  0  0  1  0  0
   -3.2736  -30.0118   54.7074 C   0  0  0  1  0  0
   -2.9248  -28.8624   53.9802 C   0  0  0  1  0  0
   -2.8816  -27.5160   50.4407 C   0  0  0  1  0  0
   -3.6057  -26.2977   49.8194 C   0  0  0  1  0  0
   -2.8470  -22.4364   46.2885 H   0  0
   -1.6813  -23.7704   46.1976 H   0  0
   -1.7662  -22.7658   47.6737 H   0  0
   -2.8745  -24.9888   47.9234 H   0  0
   -3.5552  -25.3697   45.6355 H   0  0
   -4.7209  -24.0357   45.7264 H   0  0
   -4.9757  -25.5050   46.7121 H   0  0
   -5.1609  -22.2638   46.9400 H   0  0
   -6.6699  -21.0559   48.4915 H   0  0
   -6.6418  -21.5996   50.9206 H   0  0
   -5.1056  -23.3339   51.7879 H   0  0
   -1.1238  -25.9135   49.1426 H   0  0
    0.7252  -22.9764   51.1674 H   0  0
    3.2937  -22.9982   50.3588 H   0  0
   -3.3187  -24.2025   52.5222 H   0  0
   -4.5906  -25.3522   52.1498 H   0  0
   -1.6360  -26.0252   52.4906 H   0  0
   -2.9273  -26.3478   53.6662 H   0  0
   -4.4198  -29.6332   51.0044 H   0  0
   -5.0126  -31.6793   52.2850 H   0  0
   -5.5985  -33.7403   56.6847 H   0  0
   -3.5619  -33.7516   56.2280 H   0  0
   -2.3570  -32.9799   54.8699 H   0  0
   -3.8705  -33.5378   53.2105 H   0  0
   -5.0763  -34.3081   54.5689 H   0  0
   -2.9570  -30.1142   55.7454 H   0  0
   -2.3313  -28.0833   54.4587 H   0  0
   -3.3105  -28.4306   50.0312 H   0  0
   -1.8282  -27.4829   50.1624 H   0  0
   -3.3580  -26.2553   48.7588 H   0  0
   -4.6803  -26.4714   49.8755 H   0  0
  1  2  1  0
  2  3  1  0
  2  4  1  0
  4  5  2  0
  4  9  1  0
  5  6  1  0
  6  7  2  0
  7  8  1  0
  8  9  2  0
  9 10  1  0
 10 11  1  0
 10 19  1  0
 10 35  1  0
 11 12  2  0
 11 13  1  0
 13 14  1  0
 14 15  2  0
 14 18  1  0
 15 16  1  0
 16 17  2  0
 17 18  1  0
 19 20  1  0
 20 21  1  0
 21 22  1  0
 21 34  1  0
 22 23  2  0
 22 33  1  0
 23 24  1  0
 24 25  2  0
 25 26  1  0
 25 32  1  0
 26 27  1  0
 26 30  1  0
 26 31  1  0
 27 28  2  0
 27 29  1  0
 30 31  1  0
 32 33  2  0
 34 35  1  0
  1 36  1  0
  1 37  1  0
  1 38  1  0
  2 39  1  0
  3 40  1  0
  3 41  1  0
  3 42  1  0
  5 43  1  0
  6 44  1  0
  7 45  1  0
  8 46  1  0
 13 47  1  0
 15 48  1  0
 16 49  1  0
 19 50  1  0
 19 51  1  0
 20 52  1  0
 20 53  1  0
 23 54  1  0
 24 55  1  0
 29 56  1  0
 30 57  1  0
 30 58  1  0
 31 59  1  0
 31 60  1  0
 32 61  1  0
 33 62  1  0
 34 63  1  0
 34 64  1  0
 35 65  1  0
 35 66  1  0
M  END
> <Name>
Molecule

> <AbsoluteEnergy>
50.6069

> <Clean Energy>
221.807

> <ConfNumber>
12

> <MOL_NUMBER>
3

> <RelativeEnergy>
5.42509

> <POSE_NUMBER>
9

> <LibDockScore>
130.9346

> <HotSpots>
-5.13,-22.92,46.19,A,18,6
2.67,-22.92,49.98,A,39,16
-4.13,-31.12,56.59,A,79,30

$$$$
Molecule
  SciTegic05072616053D

 66 70  0  0  0  0            999 V2000
    2.0578  -25.5768   46.3186 C   0  0  0  1  0  0
    0.8610  -24.9894   47.1040 C   0  0  0  1  0  0
    0.2682  -23.8254   46.2855 C   0  0  0  1  0  0
    1.1448  -24.6074   48.5542 C   0  0  0  1  0  0
    2.5074  -24.4045   48.8973 C   0  0  0  1  0  0
    2.9073  -24.0653   50.1900 C   0  0  0  1  0  0
    1.9488  -23.8932   51.1824 C   0  0  0  1  0  0
    0.5969  -24.0594   50.8752 C   0  0  0  1  0  0
    0.1386  -24.4363   49.5810 C   0  0  0  1  0  0
   -1.3970  -24.6043   49.3893 C   0  0  0  1  0  0
   -1.8990  -23.4841   48.4618 C   0  0  0  1  0  0
   -1.2682  -22.4567   48.3462 O   0  0  0  1  0  0
   -3.0632  -23.6260   47.7416 N   0  0  0  1  0  0
   -3.5380  -22.6267   46.7677 C   0  0  0  1  0  0
   -4.7607  -22.6904   46.1189 C   0  0  0  1  0  0
   -4.7686  -21.5548   45.3161 C   0  0  0  1  0  0
   -3.6053  -20.8652   45.4921 N   0  0  0  1  0  0
   -2.8667  -21.5134   46.3668 O   0  0  0  1  0  0
   -1.7514  -26.0413   48.8420 C   0  0  0  1  0  0
   -3.1327  -26.6714   49.1432 C   0  0  0  1  0  0
   -3.5369  -26.3970   50.5372 N   0  0  0  1  0  0
   -3.7630  -27.3930   51.4803 C   0  0  0  1  0  0
   -3.5751  -28.7567   51.1620 C   0  0  0  1  0  0
   -3.7171  -29.7472   52.1476 C   0  0  0  1  0  0
   -4.0634  -29.3889   53.4623 C   0  0  0  1  0  0
   -4.1412  -30.4298   54.5519 C   0  0  0  1  0  0
   -2.9588  -30.3403   55.5124 C   0  0  0  1  0  0
   -2.4973  -31.3552   55.9827 O   0  0  0  1  0  0
   -2.4576  -29.1388   55.8114 O   0  0  0  1  0  0
   -4.7706  -31.7817   54.2492 C   0  0  0  1  0  0
   -5.4992  -30.7938   55.1292 C   0  0  0  1  0  0
   -4.3211  -28.0434   53.7704 C   0  0  0  1  0  0
   -4.1688  -27.0538   52.7901 C   0  0  0  1  0  0
   -3.5874  -24.9549   50.8475 C   0  0  0  1  0  0
   -2.1599  -24.4041   50.7578 C   0  0  0  1  0  0
    2.8207  -24.8120   46.1733 H   0  0
    1.7225  -25.9497   45.3508 H   0  0
    2.4857  -26.4017   46.8882 H   0  0
    0.1276  -25.7878   47.2168 H   0  0
   -0.0779  -24.1877   45.3175 H   0  0
    1.0203  -23.0500   46.1400 H   0  0
   -0.5767  -23.4031   46.8295 H   0  0
    3.2672  -24.5177   48.1240 H   0  0
    3.9647  -23.9360   50.4207 H   0  0
    2.2514  -23.6297   52.1958 H   0  0
   -0.1401  -23.8933   51.6609 H   0  0
   -3.6529  -24.5053   47.8963 H   0  0
   -5.5347  -23.4518   46.2151 H   0  0
   -5.5793  -21.2613   44.6493 H   0  0
   -1.6231  -26.0271   47.7597 H   0  0
   -0.9878  -26.7328   49.1982 H   0  0
   -3.8758  -26.2531   48.4643 H   0  0
   -3.0799  -27.7493   48.9898 H   0  0
   -3.3176  -29.0427   50.1422 H   0  0
   -3.5586  -30.7951   51.8929 H   0  0
   -3.2691  -28.5901   56.1895 H   0  0
   -4.3096  -32.5776   54.8342 H   0  0
   -5.1904  -31.8107   53.2437 H   0  0
   -6.3083  -30.2981   54.5928 H   0  0
   -5.4264  -31.0638   56.1827 H   0  0
   -4.6407  -27.7678   54.7754 H   0  0
   -4.3655  -26.0114   53.0409 H   0  0
   -3.9738  -24.8082   51.8561 H   0  0
   -4.2230  -24.4451   50.1235 H   0  0
   -2.1915  -23.3379   50.9822 H   0  0
   -1.5680  -24.8603   51.5513 H   0  0
  1  2  1  0
  2  3  1  0
  2  4  1  0
  4  5  2  0
  4  9  1  0
  5  6  1  0
  6  7  2  0
  7  8  1  0
  8  9  2  0
  9 10  1  0
 10 11  1  0
 10 19  1  0
 10 35  1  0
 11 12  2  0
 11 13  1  0
 13 14  1  0
 14 15  2  0
 14 18  1  0
 15 16  1  0
 16 17  2  0
 17 18  1  0
 19 20  1  0
 20 21  1  0
 21 22  1  0
 21 34  1  0
 22 23  2  0
 22 33  1  0
 23 24  1  0
 24 25  2  0
 25 26  1  0
 25 32  1  0
 26 27  1  0
 26 30  1  0
 26 31  1  0
 27 28  2  0
 27 29  1  0
 30 31  1  0
 32 33  2  0
 34 35  1  0
  1 36  1  0
  1 37  1  0
  1 38  1  0
  2 39  1  0
  3 40  1  0
  3 41  1  0
  3 42  1  0
  5 43  1  0
  6 44  1  0
  7 45  1  0
  8 46  1  0
 13 47  1  0
 15 48  1  0
 16 49  1  0
 19 50  1  0
 19 51  1  0
 20 52  1  0
 20 53  1  0
 23 54  1  0
 24 55  1  0
 29 56  1  0
 30 57  1  0
 30 58  1  0
 31 59  1  0
 31 60  1  0
 32 61  1  0
 33 62  1  0
 34 63  1  0
 34 64  1  0
 35 65  1  0
 35 66  1  0
M  END
> <Name>
Molecule

> <AbsoluteEnergy>
60.3522

> <Clean Energy>
221.807

> <ConfNumber>
61

> <MOL_NUMBER>
3

> <RelativeEnergy>
15.1704

> <POSE_NUMBER>
10

> <LibDockScore>
130.6024

> <HotSpots>
0.27,-24.92,46.38,A,19,3
-4.93,-21.52,45.19,A,11,16
-2.33,-30.12,55.19,P,60,29

$$$$
Molecule
  SciTegic05072616053D

 66 70  0  0  0  0            999 V2000
   -6.2838  -22.8079   49.9029 C   0  0  0  1  0  0
   -4.8294  -23.3369   49.8954 C   0  0  0  1  0  0
   -3.8901  -22.1845   50.3047 C   0  0  0  1  0  0
   -4.3731  -24.0146   48.6112 C   0  0  0  1  0  0
   -5.1466  -23.7616   47.4483 C   0  0  0  1  0  0
   -4.8196  -24.3058   46.2056 C   0  0  0  1  0  0
   -3.6922  -25.1134   46.0848 C   0  0  0  1  0  0
   -2.9048  -25.3779   47.2080 C   0  0  0  1  0  0
   -3.2136  -24.8721   48.5013 C   0  0  0  1  0  0
   -2.2452  -25.2742   49.6458 C   0  0  0  1  0  0
   -0.9395  -24.4716   49.5165 C   0  0  0  1  0  0
   -0.7974  -23.6698   48.6208 O   0  0  0  1  0  0
    0.0873  -24.6552   50.4221 N   0  0  0  1  0  0
    1.5040  -24.3072   50.1840 C   0  0  0  1  0  0
    2.0591  -23.7171   49.0535 C   0  0  0  1  0  0
    3.4126  -23.6196   49.3631 C   0  0  0  1  0  0
    3.6342  -24.1278   50.6071 N   0  0  0  1  0  0
    2.4869  -24.5389   51.0962 O   0  0  0  1  0  0
   -1.8788  -26.8033   49.5979 C   0  0  0  1  0  0
   -3.0955  -27.7307   49.8011 C   0  0  0  1  0  0
   -3.7576  -27.4425   51.1064 N   0  0  0  1  0  0
   -4.0333  -28.4282   52.0518 C   0  0  0  1  0  0
   -3.3721  -29.6768   52.0130 C   0  0  0  1  0  0
   -3.6388  -30.6607   52.9784 C   0  0  0  1  0  0
   -4.5633  -30.4116   54.0062 C   0  0  0  1  0  0
   -4.8228  -31.4610   55.0584 C   0  0  0  1  0  0
   -3.9101  -31.3078   56.2629 C   0  0  0  1  0  0
   -2.8354  -31.8642   56.2638 O   0  0  0  1  0  0
   -4.3153  -30.5582   57.2879 O   0  0  0  1  0  0
   -5.2232  -32.8634   54.6248 C   0  0  0  1  0  0
   -6.2388  -31.9649   55.2891 C   0  0  0  1  0  0
   -5.2345  -29.1780   54.0506 C   0  0  0  1  0  0
   -4.9770  -28.1968   53.0799 C   0  0  0  1  0  0
   -4.0770  -26.0048   51.3426 C   0  0  0  1  0  0
   -2.8239  -25.1377   51.0900 C   0  0  0  1  0  0
   -6.3862  -21.9883   49.1917 H   0  0
   -6.5498  -22.4624   50.9019 H   0  0
   -6.9572  -23.6151   49.6147 H   0  0
   -4.7905  -24.1504   50.6199 H   0  0
   -4.1424  -21.8354   51.3060 H   0  0
   -3.9788  -21.3613   49.5957 H   0  0
   -2.8619  -22.5462   50.3028 H   0  0
   -6.0249  -23.1212   47.5286 H   0  0
   -5.4428  -24.0999   45.3353 H   0  0
   -3.4247  -25.5379   45.1172 H   0  0
   -2.0164  -25.9980   47.0884 H   0  0
   -0.1625  -25.0830   51.3705 H   0  0
    1.5532  -23.4045   48.1400 H   0  0
    4.1781  -23.2006   48.7099 H   0  0
   -1.4218  -27.0276   48.6341 H   0  0
   -1.1410  -27.0157   50.3716 H   0  0
   -3.8092  -27.5727   48.9925 H   0  0
   -2.7656  -28.7695   49.7863 H   0  0
   -2.6469  -29.8781   51.2246 H   0  0
   -3.1265  -31.6216   52.9302 H   0  0
   -5.2335  -30.9724   57.5844 H   0  0
   -4.8433  -33.6186   55.3129 H   0  0
   -5.3790  -32.9191   53.5474 H   0  0
   -6.9366  -31.5431   54.5658 H   0  0
   -6.3998  -32.2413   56.3311 H   0  0
   -5.9581  -28.9820   54.8419 H   0  0
   -5.5099  -27.2467   53.1189 H   0  0
   -4.4077  -25.8707   52.3725 H   0  0
   -4.8736  -25.6949   50.6662 H   0  0
   -3.0770  -24.0933   51.2722 H   0  0
   -2.0522  -25.4180   51.8070 H   0  0
  1  2  1  0
  2  3  1  0
  2  4  1  0
  4  5  2  0
  4  9  1  0
  5  6  1  0
  6  7  2  0
  7  8  1  0
  8  9  2  0
  9 10  1  0
 10 11  1  0
 10 19  1  0
 10 35  1  0
 11 12  2  0
 11 13  1  0
 13 14  1  0
 14 15  2  0
 14 18  1  0
 15 16  1  0
 16 17  2  0
 17 18  1  0
 19 20  1  0
 20 21  1  0
 21 22  1  0
 21 34  1  0
 22 23  2  0
 22 33  1  0
 23 24  1  0
 24 25  2  0
 25 26  1  0
 25 32  1  0
 26 27  1  0
 26 30  1  0
 26 31  1  0
 27 28  2  0
 27 29  1  0
 30 31  1  0
 32 33  2  0
 34 35  1  0
  1 36  1  0
  1 37  1  0
  1 38  1  0
  2 39  1  0
  3 40  1  0
  3 41  1  0
  3 42  1  0
  5 43  1  0
  6 44  1  0
  7 45  1  0
  8 46  1  0
 13 47  1  0
 15 48  1  0
 16 49  1  0
 19 50  1  0
 19 51  1  0
 20 52  1  0
 20 53  1  0
 23 54  1  0
 24 55  1  0
 29 56  1  0
 30 57  1  0
 30 58  1  0
 31 59  1  0
 31 60  1  0
 32 61  1  0
 33 62  1  0
 34 63  1  0
 34 64  1  0
 35 65  1  0
 35 66  1  0
M  END
> <Name>
Molecule

> <AbsoluteEnergy>
55.6846

> <Clean Energy>
221.807

> <ConfNumber>
39

> <MOL_NUMBER>
3

> <RelativeEnergy>
10.5028

> <POSE_NUMBER>
11

> <LibDockScore>
129.7468

> <HotSpots>
-4.33,-26.12,45.19,A,10,6
2.67,-22.92,49.98,A,39,16
-4.13,-30.52,57.38,P,71,28

$$$$
Molecule
  SciTegic05072616053D

 66 70  0  0  0  0            999 V2000
    0.9458  -25.2532   47.2832 C   0  0  0  1  0  0
    0.7658  -24.0859   48.2789 C   0  0  0  1  0  0
   -0.5511  -23.2845   48.1971 C   0  0  0  1  0  0
    1.2990  -24.2968   49.6910 C   0  0  0  1  0  0
    2.6850  -24.0210   49.8248 C   0  0  0  1  0  0
    3.3776  -24.2427   51.0177 C   0  0  0  1  0  0
    2.6991  -24.7560   52.1185 C   0  0  0  1  0  0
    1.3266  -25.0085   52.0316 C   0  0  0  1  0  0
    0.5701  -24.7433   50.8559 C   0  0  0  1  0  0
   -0.9482  -24.9869   50.9737 C   0  0  0  1  0  0
   -1.2780  -25.6864   52.3198 C   0  0  0  1  0  0
   -1.1506  -25.0520   53.3429 O   0  0  0  1  0  0
   -1.7266  -26.9930   52.3928 N   0  0  0  1  0  0
   -1.6314  -27.8700   53.5774 C   0  0  0  1  0  0
   -0.9931  -27.6105   54.7853 C   0  0  0  1  0  0
   -1.2557  -28.7470   55.5458 C   0  0  0  1  0  0
   -2.0045  -29.6244   54.8164 N   0  0  0  1  0  0
   -2.2222  -29.0958   53.6342 O   0  0  0  1  0  0
   -1.4371  -25.7764   49.7056 C   0  0  0  1  0  0
   -2.9380  -25.5866   49.3592 C   0  0  0  1  0  0
   -3.7425  -25.2803   50.5745 N   0  0  0  1  0  0
   -4.7191  -26.1337   51.0886 C   0  0  0  1  0  0
   -5.9044  -25.6137   51.6571 C   0  0  0  1  0  0
   -6.8440  -26.4653   52.2628 C   0  0  0  1  0  0
   -6.6194  -27.8522   52.3014 C   0  0  0  1  0  0
   -7.5988  -28.7631   52.9982 C   0  0  0  1  0  0
   -8.2460  -29.7712   52.0606 C   0  0  0  1  0  0
   -9.3248  -29.5154   51.5809 O   0  0  0  1  0  0
   -7.6175  -30.9140   51.7852 O   0  0  0  1  0  0
   -8.4302  -28.2042   54.1436 C   0  0  0  1  0  0
   -7.3248  -29.1885   54.4339 C   0  0  0  1  0  0
   -5.4730  -28.3856   51.6913 C   0  0  0  1  0  0
   -4.5347  -27.5360   51.0874 C   0  0  0  1  0  0
   -3.3532  -24.0179   51.2736 C   0  0  0  1  0  0
   -1.8409  -23.7089   51.0988 C   0  0  0  1  0  0
    0.8387  -24.8194   46.2890 H   0  0
    0.0979  -25.9190   47.4441 H   0  0
    1.8978  -25.7709   47.4010 H   0  0
    1.4860  -23.3877   47.8524 H   0  0
   -1.3534  -24.0103   48.3301 H   0  0
   -0.6125  -22.9108   47.1750 H   0  0
   -0.6059  -22.4787   48.9290 H   0  0
    3.2275  -23.6226   48.9675 H   0  0
    4.4414  -24.0152   51.0854 H   0  0
    3.2354  -24.9605   53.0451 H   0  0
    0.8155  -25.4253   52.8995 H   0  0
   -2.1816  -27.4035   51.5157 H   0  0
   -0.4222  -26.7265   55.0696 H   0  0
   -0.9150  -28.9109   56.5681 H   0  0
   -0.8397  -25.4658   48.8484 H   0  0
   -1.2468  -26.8387   49.8588 H   0  0
   -3.0411  -24.7682   48.6467 H   0  0
   -3.3191  -26.4982   48.8989 H   0  0
   -6.0916  -24.5404   51.6253 H   0  0
   -7.7496  -26.0490   52.7040 H   0  0
   -7.4421  -31.3559   52.7214 H   0  0
   -9.4119  -28.6754   54.1923 H   0  0
   -8.1359  -27.1840   54.3898 H   0  0
   -6.4405  -28.6938   54.8356 H   0  0
   -7.7162  -30.1855   54.6364 H   0  0
   -5.3117  -29.4636   51.6870 H   0  0
   -3.6518  -27.9620   50.6109 H   0  0
   -3.9364  -23.1907   50.8689 H   0  0
   -3.5782  -24.1124   52.3359 H   0  0
   -1.5006  -23.1233   51.9528 H   0  0
   -1.7082  -23.0962   50.2071 H   0  0
  1  2  1  0
  2  3  1  0
  2  4  1  0
  4  5  2  0
  4  9  1  0
  5  6  1  0
  6  7  2  0
  7  8  1  0
  8  9  2  0
  9 10  1  0
 10 11  1  0
 10 19  1  0
 10 35  1  0
 11 12  2  0
 11 13  1  0
 13 14  1  0
 14 15  2  0
 14 18  1  0
 15 16  1  0
 16 17  2  0
 17 18  1  0
 19 20  1  0
 20 21  1  0
 21 22  1  0
 21 34  1  0
 22 23  2  0
 22 33  1  0
 23 24  1  0
 24 25  2  0
 25 26  1  0
 25 32  1  0
 26 27  1  0
 26 30  1  0
 26 31  1  0
 27 28  2  0
 27 29  1  0
 30 31  1  0
 32 33  2  0
 34 35  1  0
  1 36  1  0
  1 37  1  0
  1 38  1  0
  2 39  1  0
  3 40  1  0
  3 41  1  0
  3 42  1  0
  5 43  1  0
  6 44  1  0
  7 45  1  0
  8 46  1  0
 13 47  1  0
 15 48  1  0
 16 49  1  0
 19 50  1  0
 19 51  1  0
 20 52  1  0
 20 53  1  0
 23 54  1  0
 24 55  1  0
 29 56  1  0
 30 57  1  0
 30 58  1  0
 31 59  1  0
 31 60  1  0
 32 61  1  0
 33 62  1  0
 34 63  1  0
 34 64  1  0
 35 65  1  0
 35 66  1  0
M  END
> <Name>
Molecule

> <AbsoluteEnergy>
64.9686

> <Clean Energy>
221.807

> <ConfNumber>
78

> <MOL_NUMBER>
3

> <RelativeEnergy>
19.7868

> <POSE_NUMBER>
12

> <LibDockScore>
129.0113

> <HotSpots>
-0.93,-23.32,46.98,A,25,1
2.67,-22.92,49.98,A,39,6
-2.13,-28.32,55.19,P,61,17

$$$$
Molecule
  SciTegic05072616053D

 66 70  0  0  0  0            999 V2000
    1.1746  -25.9964   46.3579 C   0  0  0  1  0  0
    0.3074  -24.8933   46.9942 C   0  0  0  1  0  0
    0.1379  -23.7037   46.0288 C   0  0  0  1  0  0
    0.8435  -24.4529   48.3398 C   0  0  0  1  0  0
    2.1993  -24.0567   48.3893 C   0  0  0  1  0  0
    2.7853  -23.6194   49.5830 C   0  0  0  1  0  0
    2.0233  -23.5773   50.7535 C   0  0  0  1  0  0
    0.6768  -23.9708   50.7300 C   0  0  0  1  0  0
    0.0513  -24.4128   49.5350 C   0  0  0  1  0  0
   -1.4344  -24.8148   49.5365 C   0  0  0  1  0  0
   -2.1397  -24.2966   48.2650 C   0  0  0  1  0  0
   -2.6935  -25.0899   47.5394 O   0  0  0  1  0  0
   -2.1394  -22.9481   47.9300 N   0  0  0  1  0  0
   -2.9788  -22.3327   46.8771 C   0  0  0  1  0  0
   -4.1234  -22.8655   46.2952 C   0  0  0  1  0  0
   -4.5020  -21.9020   45.3621 C   0  0  0  1  0  0
   -3.6265  -20.8575   45.4017 N   0  0  0  1  0  0
   -2.7174  -21.1145   46.3160 O   0  0  0  1  0  0
   -2.2691  -24.1839   50.7003 C   0  0  0  1  0  0
   -3.6884  -24.7881   50.8245 C   0  0  0  1  0  0
   -3.6380  -26.2520   51.1117 N   0  0  0  1  0  0
   -4.7722  -26.9640   51.5136 C   0  0  0  1  0  0
   -4.7157  -28.3519   51.7967 C   0  0  0  1  0  0
   -5.8674  -29.0560   52.2001 C   0  0  0  1  0  0
   -7.1029  -28.3926   52.3178 C   0  0  0  1  0  0
   -8.3519  -29.1509   52.7408 C   0  0  0  1  0  0
   -8.9310  -28.7388   54.1004 C   0  0  0  1  0  0
   -9.2377  -27.5842   54.3001 O   0  0  0  1  0  0
   -9.0929  -29.6684   55.0500 O   0  0  0  1  0  0
   -9.3363  -29.5546   51.6523 C   0  0  0  1  0  0
   -8.4930  -30.6095   52.3283 C   0  0  0  1  0  0
   -7.1697  -27.0156   52.0396 C   0  0  0  1  0  0
   -6.0173  -26.3092   51.6507 C   0  0  0  1  0  0
   -2.3047  -26.9002   50.9519 C   0  0  0  1  0  0
   -1.5551  -26.3821   49.6985 C   0  0  0  1  0  0
    2.1531  -25.5812   46.1163 H   0  0
    0.6951  -26.3375   45.4404 H   0  0
    1.2868  -26.8311   47.0499 H   0  0
   -0.6797  -25.3174   47.1783 H   0  0
   -0.3362  -24.0567   45.1130 H   0  0
    1.1217  -23.3004   45.7889 H   0  0
   -0.4769  -22.9310   46.4903 H   0  0
    2.8001  -24.0923   47.4805 H   0  0
    3.8313  -23.3131   49.5993 H   0  0
    2.4754  -23.2385   51.6857 H   0  0
    0.0967  -23.9362   51.6522 H   0  0
   -1.4813  -22.3044   48.4754 H   0  0
   -4.6108  -23.8149   46.5169 H   0  0
   -5.3661  -21.9727   44.7015 H   0  0
   -2.3556  -23.1101   50.5341 H   0  0
   -1.7375  -24.3344   51.6399 H   0  0
   -4.2311  -24.6256   49.8933 H   0  0
   -4.2233  -24.2844   51.6297 H   0  0
   -3.7680  -28.8817   51.7009 H   0  0
   -5.8011  -30.1210   52.4224 H   0  0
   -8.1415  -30.0936   55.1789 H   0  0
   -8.9570  -29.3116   50.6598 H   0  0
  -10.3613  -29.5604   52.0230 H   0  0
   -9.0690  -31.1778   53.0587 H   0  0
   -7.6639  -30.9277   51.6963 H   0  0
   -8.1217  -26.4919   52.1260 H   0  0
   -6.0855  -25.2397   51.4519 H   0  0
   -2.4392  -27.9785   50.8667 H   0  0
   -1.7016  -26.6984   51.8372 H   0  0
   -0.5514  -26.8072   49.7005 H   0  0
   -2.0504  -26.7824   48.8139 H   0  0
  1  2  1  0
  2  3  1  0
  2  4  1  0
  4  5  2  0
  4  9  1  0
  5  6  1  0
  6  7  2  0
  7  8  1  0
  8  9  2  0
  9 10  1  0
 10 11  1  0
 10 19  1  0
 10 35  1  0
 11 12  2  0
 11 13  1  0
 13 14  1  0
 14 15  2  0
 14 18  1  0
 15 16  1  0
 16 17  2  0
 17 18  1  0
 19 20  1  0
 20 21  1  0
 21 22  1  0
 21 34  1  0
 22 23  2  0
 22 33  1  0
 23 24  1  0
 24 25  2  0
 25 26  1  0
 25 32  1  0
 26 27  1  0
 26 30  1  0
 26 31  1  0
 27 28  2  0
 27 29  1  0
 30 31  1  0
 32 33  2  0
 34 35  1  0
  1 36  1  0
  1 37  1  0
  1 38  1  0
  2 39  1  0
  3 40  1  0
  3 41  1  0
  3 42  1  0
  5 43  1  0
  6 44  1  0
  7 45  1  0
  8 46  1  0
 13 47  1  0
 15 48  1  0
 16 49  1  0
 19 50  1  0
 19 51  1  0
 20 52  1  0
 20 53  1  0
 23 54  1  0
 24 55  1  0
 29 56  1  0
 30 57  1  0
 30 58  1  0
 31 59  1  0
 31 60  1  0
 32 61  1  0
 33 62  1  0
 34 63  1  0
 34 64  1  0
 35 65  1  0
 35 66  1  0
M  END
> <Name>
Molecule

> <AbsoluteEnergy>
51.882

> <Clean Energy>
221.807

> <ConfNumber>
19

> <MOL_NUMBER>
3

> <RelativeEnergy>
6.7001

> <POSE_NUMBER>
13

> <LibDockScore>
127.943

> <HotSpots>
0.27,-24.92,46.38,A,19,5
-5.13,-20.52,44.98,P,17,17
-6.33,-26.32,51.98,A,57,33

$$$$
Molecule
  SciTegic05072616053D

 66 70  0  0  0  0            999 V2000
   -0.4223  -26.0588   53.2828 C   0  0  0  1  0  0
    0.4935  -24.8449   53.0074 C   0  0  0  1  0  0
    0.1803  -23.5454   53.7798 C   0  0  0  1  0  0
    0.9863  -24.6259   51.5786 C   0  0  0  1  0  0
    2.3095  -24.1131   51.5241 C   0  0  0  1  0  0
    2.9840  -23.9034   50.3208 C   0  0  0  1  0  0
    2.3496  -24.2087   49.1230 C   0  0  0  1  0  0
    1.0364  -24.6878   49.1356 C   0  0  0  1  0  0
    0.2856  -24.8717   50.3331 C   0  0  0  1  0  0
   -1.1875  -25.3173   50.1577 C   0  0  0  1  0  0
   -1.7708  -24.8901   48.7848 C   0  0  0  1  0  0
   -2.0176  -23.7215   48.5823 O   0  0  0  1  0  0
   -2.0340  -25.8060   47.7797 N   0  0  0  1  0  0
   -3.0856  -25.6378   46.7546 C   0  0  0  1  0  0
   -4.0068  -24.6016   46.6684 C   0  0  0  1  0  0
   -4.7843  -24.9378   45.5653 C   0  0  0  1  0  0
   -4.3303  -26.1053   45.0274 N   0  0  0  1  0  0
   -3.3083  -26.5225   45.7431 O   0  0  0  1  0  0
   -1.3257  -26.8557   50.3438 C   0  0  0  1  0  0
   -2.7689  -27.3919   50.2142 C   0  0  0  1  0  0
   -3.7902  -26.6116   50.9882 N   0  0  0  1  0  0
   -4.8907  -27.2314   51.5848 C   0  0  0  1  0  0
   -4.9109  -28.6216   51.8415 C   0  0  0  1  0  0
   -6.0465  -29.2375   52.4001 C   0  0  0  1  0  0
   -7.1864  -28.4757   52.7183 C   0  0  0  1  0  0
   -8.4292  -29.1325   53.2864 C   0  0  0  1  0  0
   -8.8256  -28.6200   54.6684 C   0  0  0  1  0  0
   -9.3304  -27.5253   54.7653 O   0  0  0  1  0  0
   -8.6272  -29.3783   55.7502 O   0  0  0  1  0  0
   -9.5618  -29.4703   52.3265 C   0  0  0  1  0  0
   -8.7451  -30.5807   52.9380 C   0  0  0  1  0  0
   -7.1652  -27.0872   52.4956 C   0  0  0  1  0  0
   -6.0291  -26.4721   51.9436 C   0  0  0  1  0  0
   -3.6326  -25.1244   51.0387 C   0  0  0  1  0  0
   -2.1653  -24.6662   51.1773 C   0  0  0  1  0  0
   -1.4371  -25.7310   53.0573 H   0  0
   -0.3661  -26.2444   54.3554 H   0  0
   -0.1432  -26.9394   52.7042 H   0  0
    1.3913  -25.2240   53.4955 H   0  0
    0.2189  -23.8043   54.8379 H   0  0
   -0.8520  -23.2909   53.5398 H   0  0
    0.8648  -22.7328   53.5364 H   0  0
    2.8178  -23.8741   52.4583 H   0  0
    3.9982  -23.5042   50.3205 H   0  0
    2.8740  -24.0751   48.1768 H   0  0
    0.5641  -24.9324   48.1842 H   0  0
   -1.4371  -26.6933   47.7429 H   0  0
   -4.0988  -23.7286   47.3146 H   0  0
   -5.6267  -24.3574   45.1889 H   0  0
   -0.6999  -27.3555   49.6044 H   0  0
   -0.9398  -27.1266   51.3266 H   0  0
   -3.0515  -27.3889   49.1615 H   0  0
   -2.7914  -28.4278   50.5525 H   0  0
   -4.0348  -29.2248   51.6035 H   0  0
   -6.0432  -30.3113   52.5875 H   0  0
   -7.6014  -29.6014   55.7303 H   0  0
   -9.2770  -29.2842   51.2910 H   0  0
  -10.5350  -29.3739   52.8078 H   0  0
   -9.2823  -31.0780   53.7455 H   0  0
   -8.0234  -30.9872   52.2295 H   0  0
   -8.0360  -26.4843   52.7530 H   0  0
   -6.0247  -25.3931   51.7894 H   0  0
   -4.2042  -24.7369   51.8821 H   0  0
   -4.0521  -24.6945   50.1291 H   0  0
   -2.1252  -23.5832   51.0603 H   0  0
   -1.8221  -24.8938   52.1865 H   0  0
  1  2  1  0
  2  3  1  0
  2  4  1  0
  4  5  2  0
  4  9  1  0
  5  6  1  0
  6  7  2  0
  7  8  1  0
  8  9  2  0
  9 10  1  0
 10 11  1  0
 10 19  1  0
 10 35  1  0
 11 12  2  0
 11 13  1  0
 13 14  1  0
 14 15  2  0
 14 18  1  0
 15 16  1  0
 16 17  2  0
 17 18  1  0
 19 20  1  0
 20 21  1  0
 21 22  1  0
 21 34  1  0
 22 23  2  0
 22 33  1  0
 23 24  1  0
 24 25  2  0
 25 26  1  0
 25 32  1  0
 26 27  1  0
 26 30  1  0
 26 31  1  0
 27 28  2  0
 27 29  1  0
 30 31  1  0
 32 33  2  0
 34 35  1  0
  1 36  1  0
  1 37  1  0
  1 38  1  0
  2 39  1  0
  3 40  1  0
  3 41  1  0
  3 42  1  0
  5 43  1  0
  6 44  1  0
  7 45  1  0
  8 46  1  0
 13 47  1  0
 15 48  1  0
 16 49  1  0
 19 50  1  0
 19 51  1  0
 20 52  1  0
 20 53  1  0
 23 54  1  0
 24 55  1  0
 29 56  1  0
 30 57  1  0
 30 58  1  0
 31 59  1  0
 31 60  1  0
 32 61  1  0
 33 62  1  0
 34 63  1  0
 34 64  1  0
 35 65  1  0
 35 66  1  0
M  END
> <Name>
Molecule

> <AbsoluteEnergy>
64.978

> <Clean Energy>
221.807

> <ConfNumber>
79

> <MOL_NUMBER>
3

> <RelativeEnergy>
19.7962

> <POSE_NUMBER>
14

> <LibDockScore>
127.5823

> <HotSpots>
-0.33,-25.52,53.19,A,64,1
2.67,-22.92,49.98,A,39,6
-6.33,-26.32,51.98,A,57,33

$$$$
Molecule
  SciTegic05072616053D

 66 70  0  0  0  0            999 V2000
   -8.2924  -32.0201   51.2127 C   0  0  0  1  0  0
   -7.1316  -31.0674   51.5782 C   0  0  0  1  0  0
   -5.9091  -31.8741   52.0568 C   0  0  0  1  0  0
   -7.4931  -29.9805   52.5701 C   0  0  0  1  0  0
   -8.6178  -30.2507   53.3920 C   0  0  0  1  0  0
   -9.0813  -29.3335   54.3386 C   0  0  0  1  0  0
   -8.4223  -28.1160   54.4995 C   0  0  0  1  0  0
   -7.3018  -27.8293   53.7174 C   0  0  0  1  0  0
   -6.7917  -28.7313   52.7461 C   0  0  0  1  0  0
   -5.5275  -28.2222   52.0280 C   0  0  0  1  0  0
   -4.4243  -28.0364   53.0823 C   0  0  0  1  0  0
   -4.0442  -26.9213   53.3555 O   0  0  0  1  0  0
   -3.8529  -29.1218   53.7104 N   0  0  0  1  0  0
   -2.6622  -29.0388   54.5846 C   0  0  0  1  0  0
   -1.7508  -27.9910   54.6821 C   0  0  0  1  0  0
   -0.8255  -28.4429   55.6177 C   0  0  0  1  0  0
   -1.1831  -29.6850   56.0484 N   0  0  0  1  0  0
   -2.2881  -30.0362   55.4305 O   0  0  0  1  0  0
   -5.8407  -26.8602   51.3392 C   0  0  0  1  0  0
   -4.6129  -26.1345   50.7509 C   0  0  0  1  0  0
   -3.5319  -27.0071   50.1804 N   0  0  0  1  0  0
   -2.3855  -26.4302   49.6187 C   0  0  0  1  0  0
   -2.1284  -25.0434   49.7502 C   0  0  0  1  0  0
   -0.9655  -24.4695   49.2193 C   0  0  0  1  0  0
   -0.0268  -25.2686   48.5472 C   0  0  0  1  0  0
    1.2479  -24.6600   48.0258 C   0  0  0  1  0  0
    2.1877  -24.2995   49.1651 C   0  0  0  1  0  0
    2.3160  -23.1385   49.4729 O   0  0  0  1  0  0
    2.8358  -25.2656   49.8134 O   0  0  0  1  0  0
    1.2020  -23.7827   46.7836 C   0  0  0  1  0  0
    1.8409  -25.1484   46.7138 C   0  0  0  1  0  0
   -0.2755  -26.6390   48.3781 C   0  0  0  1  0  0
   -1.4380  -27.2137   48.9122 C   0  0  0  1  0  0
   -3.6545  -28.4980   50.2511 C   0  0  0  1  0  0
   -4.9757  -29.0295   50.8252 C   0  0  0  1  0  0
   -8.5645  -32.6059   52.0907 H   0  0
   -7.9671  -32.6924   50.4188 H   0  0
   -9.1532  -31.4428   50.8752 H   0  0
   -6.8843  -30.5348   50.6599 H   0  0
   -5.5903  -32.5468   51.2606 H   0  0
   -6.1877  -32.4603   52.9325 H   0  0
   -5.0949  -31.1961   52.3127 H   0  0
   -9.1361  -31.2032   53.2815 H   0  0
   -9.9538  -29.5689   54.9481 H   0  0
   -8.7796  -27.3919   55.2317 H   0  0
   -6.7974  -26.8733   53.8581 H   0  0
   -4.2973  -30.0829   53.5565 H   0  0
   -1.7600  -27.0396   54.1502 H   0  0
    0.0506  -27.8886   55.9543 H   0  0
   -6.3193  -26.2024   52.0647 H   0  0
   -6.5611  -27.0306   50.5391 H   0  0
   -4.1741  -25.5098   51.5289 H   0  0
   -4.9544  -25.4563   49.9690 H   0  0
   -2.8470  -24.4123   50.2730 H   0  0
   -0.7891  -23.3994   49.3284 H   0  0
    3.3600  -25.7855   49.0668 H   0  0
    1.9495  -22.9905   46.8255 H   0  0
    0.2093  -23.7793   46.3335 H   0  0
    1.1893  -25.8728   46.2251 H   0  0
    2.9290  -25.0843   46.7187 H   0  0
    0.4357  -27.2578   47.8309 H   0  0
   -1.6163  -28.2811   48.7820 H   0  0
   -3.5242  -28.9038   49.2479 H   0  0
   -2.8337  -28.8853   50.8547 H   0  0
   -4.8303  -30.0643   51.1352 H   0  0
   -5.7237  -29.0339   50.0324 H   0  0
  1  2  1  0
  2  3  1  0
  2  4  1  0
  4  5  2  0
  4  9  1  0
  5  6  1  0
  6  7  2  0
  7  8  1  0
  8  9  2  0
  9 10  1  0
 10 11  1  0
 10 19  1  0
 10 35  1  0
 11 12  2  0
 11 13  1  0
 13 14  1  0
 14 15  2  0
 14 18  1  0
 15 16  1  0
 16 17  2  0
 17 18  1  0
 19 20  1  0
 20 21  1  0
 21 22  1  0
 21 34  1  0
 22 23  2  0
 22 33  1  0
 23 24  1  0
 24 25  2  0
 25 26  1  0
 25 32  1  0
 26 27  1  0
 26 30  1  0
 26 31  1  0
 27 28  2  0
 27 29  1  0
 30 31  1  0
 32 33  2  0
 34 35  1  0
  1 36  1  0
  1 37  1  0
  1 38  1  0
  2 39  1  0
  3 40  1  0
  3 41  1  0
  3 42  1  0
  5 43  1  0
  6 44  1  0
  7 45  1  0
  8 46  1  0
 13 47  1  0
 15 48  1  0
 16 49  1  0
 19 50  1  0
 19 51  1  0
 20 52  1  0
 20 53  1  0
 23 54  1  0
 24 55  1  0
 29 56  1  0
 30 57  1  0
 30 58  1  0
 31 59  1  0
 31 60  1  0
 32 61  1  0
 33 62  1  0
 34 63  1  0
 34 64  1  0
 35 65  1  0
 35 66  1  0
M  END
> <Name>
Molecule

> <AbsoluteEnergy>
55.9039

> <Clean Energy>
221.807

> <ConfNumber>
40

> <MOL_NUMBER>
3

> <RelativeEnergy>
10.722

> <POSE_NUMBER>
15

> <LibDockScore>
127.3181

> <HotSpots>
-8.73,-28.12,54.38,A,70,7
-1.53,-28.72,56.38,A,78,16
1.27,-23.52,47.59,A,27,30

$$$$
Molecule
  SciTegic05072616053D

 66 70  0  0  0  0            999 V2000
   -0.3758  -26.0929   53.2220 C   0  0  0  1  0  0
    0.5196  -24.8626   52.9523 C   0  0  0  1  0  0
    0.1909  -23.5749   53.7381 C   0  0  0  1  0  0
    1.0006  -24.6233   51.5228 C   0  0  0  1  0  0
    2.3230  -24.1088   51.4647 C   0  0  0  1  0  0
    2.9875  -23.8818   50.2590 C   0  0  0  1  0  0
    2.3437  -24.1708   49.0622 C   0  0  0  1  0  0
    1.0308  -24.6509   49.0788 C   0  0  0  1  0  0
    0.2899  -24.8521   50.2797 C   0  0  0  1  0  0
   -1.1842  -25.2962   50.1100 C   0  0  0  1  0  0
   -1.7705  -24.8741   48.7368 C   0  0  0  1  0  0
   -2.0292  -23.7080   48.5348 O   0  0  0  1  0  0
   -2.0230  -25.7920   47.7308 N   0  0  0  1  0  0
   -3.0847  -25.6410   46.7133 C   0  0  0  1  0  0
   -4.0345  -24.6297   46.6443 C   0  0  0  1  0  0
   -4.8087  -24.9743   45.5414 C   0  0  0  1  0  0
   -4.3256  -26.1224   44.9873 N   0  0  0  1  0  0
   -3.2885  -26.5195   45.6926 O   0  0  0  1  0  0
   -1.3243  -26.8336   50.3032 C   0  0  0  1  0  0
   -2.7686  -27.3681   50.1796 C   0  0  0  1  0  0
   -3.7867  -26.5830   50.9529 N   0  0  0  1  0  0
   -4.8867  -27.1985   51.5550 C   0  0  0  1  0  0
   -4.8809  -28.5741   51.8814 C   0  0  0  1  0  0
   -6.0150  -29.1886   52.4447 C   0  0  0  1  0  0
   -7.1795  -28.4396   52.6978 C   0  0  0  1  0  0
   -8.4201  -29.0968   53.2701 C   0  0  0  1  0  0
   -8.7825  -28.6219   54.6747 C   0  0  0  1  0  0
   -9.3311  -27.5524   54.8087 O   0  0  0  1  0  0
   -8.5069  -29.3853   55.7357 O   0  0  0  1  0  0
   -9.5756  -29.3900   52.3230 C   0  0  0  1  0  0
   -8.7627  -30.5294   52.8841 C   0  0  0  1  0  0
   -7.1850  -27.0639   52.4053 C   0  0  0  1  0  0
   -6.0505  -26.4499   51.8488 C   0  0  0  1  0  0
   -3.6268  -25.0958   50.9965 C   0  0  0  1  0  0
   -2.1585  -24.6392   51.1293 C   0  0  0  1  0  0
   -1.3968  -25.7788   53.0051 H   0  0
   -0.3105  -26.2871   54.2926 H   0  0
   -0.0865  -26.9639   52.6340 H   0  0
    1.4260  -25.2321   53.4319 H   0  0
    0.2396  -23.8426   54.7936 H   0  0
   -0.8466  -23.3342   53.5062 H   0  0
    0.8614  -22.7497   53.4982 H   0  0
    2.8387  -23.8825   52.3979 H   0  0
    4.0014  -23.4818   50.2561 H   0  0
    2.8604  -24.0237   48.1138 H   0  0
    0.5508  -24.8824   48.1279 H   0  0
   -1.4095  -26.6676   47.6873 H   0  0
   -4.1469  -23.7672   47.3013 H   0  0
   -5.6689  -24.4131   45.1764 H   0  0
   -0.7011  -27.3376   49.5644 H   0  0
   -0.9364  -27.1007   51.2862 H   0  0
   -3.0539  -27.3691   49.1276 H   0  0
   -2.7918  -28.4026   50.5223 H   0  0
   -3.9857  -29.1671   51.6942 H   0  0
   -5.9913  -30.2512   52.6864 H   0  0
   -7.4738  -29.5617   55.6714 H   0  0
   -9.3084  -29.1760   51.2882 H   0  0
  -10.5379  -29.2955   52.8262 H   0  0
   -9.2910  -31.0441   53.6866 H   0  0
   -8.0606  -30.9235   52.1494 H   0  0
   -8.0754  -26.4701   52.6118 H   0  0
   -6.0673  -25.3802   51.6402 H   0  0
   -4.1956  -24.7038   51.8396 H   0  0
   -4.0480  -24.6693   50.0862 H   0  0
   -2.1171  -23.5568   51.0075 H   0  0
   -1.8130  -24.8629   52.1386 H   0  0
  1  2  1  0
  2  3  1  0
  2  4  1  0
  4  5  2  0
  4  9  1  0
  5  6  1  0
  6  7  2  0
  7  8  1  0
  8  9  2  0
  9 10  1  0
 10 11  1  0
 10 19  1  0
 10 35  1  0
 11 12  2  0
 11 13  1  0
 13 14  1  0
 14 15  2  0
 14 18  1  0
 15 16  1  0
 16 17  2  0
 17 18  1  0
 19 20  1  0
 20 21  1  0
 21 22  1  0
 21 34  1  0
 22 23  2  0
 22 33  1  0
 23 24  1  0
 24 25  2  0
 25 26  1  0
 25 32  1  0
 26 27  1  0
 26 30  1  0
 26 31  1  0
 27 28  2  0
 27 29  1  0
 30 31  1  0
 32 33  2  0
 34 35  1  0
  1 36  1  0
  1 37  1  0
  1 38  1  0
  2 39  1  0
  3 40  1  0
  3 41  1  0
  3 42  1  0
  5 43  1  0
  6 44  1  0
  7 45  1  0
  8 46  1  0
 13 47  1  0
 15 48  1  0
 16 49  1  0
 19 50  1  0
 19 51  1  0
 20 52  1  0
 20 53  1  0
 23 54  1  0
 24 55  1  0
 29 56  1  0
 30 57  1  0
 30 58  1  0
 31 59  1  0
 31 60  1  0
 32 61  1  0
 33 62  1  0
 34 63  1  0
 34 64  1  0
 35 65  1  0
 35 66  1  0
M  END
> <Name>
Molecule

> <AbsoluteEnergy>
64.978

> <Clean Energy>
221.807

> <ConfNumber>
79

> <MOL_NUMBER>
3

> <RelativeEnergy>
19.7962

> <POSE_NUMBER>
16

> <LibDockScore>
127.1939

> <HotSpots>
0.87,-24.32,52.78,A,63,5
-4.93,-23.52,47.59,A,26,15
-6.53,-30.72,51.78,A,56,24

$$$$
Molecule
  SciTegic05072616053D

 66 70  0  0  0  0            999 V2000
    1.2227  -26.1175   46.6542 C   0  0  0  1  0  0
    0.4497  -24.9367   47.2723 C   0  0  0  1  0  0
    0.3928  -23.7464   46.2946 C   0  0  0  1  0  0
    1.0109  -24.5313   48.6188 C   0  0  0  1  0  0
    2.3722  -24.1532   48.6564 C   0  0  0  1  0  0
    2.9809  -23.7484   49.8502 C   0  0  0  1  0  0
    2.2366  -23.7214   51.0324 C   0  0  0  1  0  0
    0.8850  -24.0975   51.0206 C   0  0  0  1  0  0
    0.2367  -24.5065   49.8261 C   0  0  0  1  0  0
   -1.2538  -24.8900   49.8412 C   0  0  0  1  0  0
   -1.9756  -24.3177   48.6025 C   0  0  0  1  0  0
   -2.6323  -25.0629   47.9126 O   0  0  0  1  0  0
   -1.8756  -22.9757   48.2564 N   0  0  0  1  0  0
   -2.6759  -22.3059   47.2062 C   0  0  0  1  0  0
   -3.8732  -22.7449   46.6526 C   0  0  0  1  0  0
   -4.1817  -21.7672   45.7084 C   0  0  0  1  0  0
   -3.2169  -20.8038   45.7151 N   0  0  0  1  0  0
   -2.3180  -21.1251   46.6190 O   0  0  0  1  0  0
   -2.0588  -24.2910   51.0423 C   0  0  0  1  0  0
   -3.4833  -24.8817   51.1715 C   0  0  0  1  0  0
   -3.4467  -26.3555   51.4053 N   0  0  0  1  0  0
   -4.5825  -27.0674   51.8027 C   0  0  0  1  0  0
   -4.5373  -28.4640   52.0414 C   0  0  0  1  0  0
   -5.6905  -29.1679   52.4409 C   0  0  0  1  0  0
   -6.9164  -28.4952   52.5990 C   0  0  0  1  0  0
   -8.1672  -29.2528   53.0179 C   0  0  0  1  0  0
   -8.4989  -29.1792   54.5140 C   0  0  0  1  0  0
   -7.6041  -29.1720   55.3303 O   0  0  0  1  0  0
   -9.7804  -29.1197   54.8965 O   0  0  0  1  0  0
   -9.3343  -29.2852   52.0414 C   0  0  0  1  0  0
   -8.5226  -30.5362   52.2803 C   0  0  0  1  0  0
   -6.9719  -27.1095   52.3650 C   0  0  0  1  0  0
   -5.8178  -26.4037   51.9801 C   0  0  0  1  0  0
   -2.1251  -27.0139   51.1974 C   0  0  0  1  0  0
   -1.3919  -26.4604   49.9494 C   0  0  0  1  0  0
    2.2357  -25.7916   46.4180 H   0  0
    0.7230  -26.4246   45.7354 H   0  0
    1.2557  -26.9519   47.3548 H   0  0
   -0.5722  -25.2713   47.4510 H   0  0
   -0.1025  -24.0658   45.3777 H   0  0
    1.4101  -23.4329   46.0602 H   0  0
   -0.1561  -22.9185   46.7433 H   0  0
    2.9593  -24.1773   47.7383 H   0  0
    4.0308  -23.4556   49.8575 H   0  0
    2.7064  -23.4079   51.9646 H   0  0
    0.3189  -24.0750   51.9518 H   0  0
   -1.1650  -22.3801   48.7904 H   0  0
   -4.4385  -23.6436   46.8993 H   0  0
   -5.0602  -21.7720   45.0631 H   0  0
   -2.1344  -23.2110   50.9162 H   0  0
   -1.5120  -24.4817   51.9658 H   0  0
   -4.0408  -24.6792   50.2570 H   0  0
   -3.9967  -24.4007   52.0040 H   0  0
   -3.5972  -29.0008   51.9141 H   0  0
   -5.6328  -30.2401   52.6287 H   0  0
  -10.2308  -29.9670   54.4701 H   0  0
   -9.0760  -28.8131   51.0935 H   0  0
  -10.2907  -29.3204   52.5631 H   0  0
   -9.0469  -31.2381   52.9288 H   0  0
   -7.8312  -30.7300   51.4602 H   0  0
   -7.9165  -26.5785   52.4828 H   0  0
   -5.8769  -25.3277   51.8160 H   0  0
   -2.2751  -28.0867   51.0763 H   0  0
   -1.5033  -26.8515   52.0778 H   0  0
   -0.3940  -26.8977   49.9173 H   0  0
   -1.9085  -26.8225   49.0605 H   0  0
  1  2  1  0
  2  3  1  0
  2  4  1  0
  4  5  2  0
  4  9  1  0
  5  6  1  0
  6  7  2  0
  7  8  1  0
  8  9  2  0
  9 10  1  0
 10 11  1  0
 10 19  1  0
 10 35  1  0
 11 12  2  0
 11 13  1  0
 13 14  1  0
 14 15  2  0
 14 18  1  0
 15 16  1  0
 16 17  2  0
 17 18  1  0
 19 20  1  0
 20 21  1  0
 21 22  1  0
 21 34  1  0
 22 23  2  0
 22 33  1  0
 23 24  1  0
 24 25  2  0
 25 26  1  0
 25 32  1  0
 26 27  1  0
 26 30  1  0
 26 31  1  0
 27 28  2  0
 27 29  1  0
 30 31  1  0
 32 33  2  0
 34 35  1  0
  1 36  1  0
  1 37  1  0
  1 38  1  0
  2 39  1  0
  3 40  1  0
  3 41  1  0
  3 42  1  0
  5 43  1  0
  6 44  1  0
  7 45  1  0
  8 46  1  0
 13 47  1  0
 15 48  1  0
 16 49  1  0
 19 50  1  0
 19 51  1  0
 20 52  1  0
 20 53  1  0
 23 54  1  0
 24 55  1  0
 29 56  1  0
 30 57  1  0
 30 58  1  0
 31 59  1  0
 31 60  1  0
 32 61  1  0
 33 62  1  0
 34 63  1  0
 34 64  1  0
 35 65  1  0
 35 66  1  0
M  END
> <Name>
Molecule

> <AbsoluteEnergy>
51.882

> <Clean Energy>
221.807

> <ConfNumber>
19

> <MOL_NUMBER>
3

> <RelativeEnergy>
6.7001

> <POSE_NUMBER>
17

> <LibDockScore>
126.7847

> <HotSpots>
2.67,-23.92,48.98,A,32,5
-3.53,-22.32,46.59,A,20,15
-7.13,-31.92,50.98,A,49,31

$$$$
Molecule
  SciTegic05072616053D

 66 70  0  0  0  0            999 V2000
   -0.9085  -23.2289   48.3402 C   0  0  0  1  0  0
   -0.6867  -24.6604   48.8748 C   0  0  0  1  0  0
   -0.1471  -25.5976   47.7767 C   0  0  0  1  0  0
    0.1826  -24.6794   50.1171 C   0  0  0  1  0  0
    1.5341  -24.2981   49.9549 C   0  0  0  1  0  0
    2.4161  -24.2728   51.0419 C   0  0  0  1  0  0
    1.9584  -24.6208   52.3159 C   0  0  0  1  0  0
    0.6209  -24.9966   52.5012 C   0  0  0  1  0  0
   -0.2963  -25.0460   51.4208 C   0  0  0  1  0  0
   -1.7533  -25.4690   51.6588 C   0  0  0  1  0  0
   -2.6530  -24.2689   51.3152 C   0  0  0  1  0  0
   -2.1470  -23.1956   51.0608 O   0  0  0  1  0  0
   -4.0239  -24.3989   51.2638 N   0  0  0  1  0  0
   -4.9248  -23.3531   50.7393 C   0  0  0  1  0  0
   -4.5833  -22.1523   50.1220 C   0  0  0  1  0  0
   -5.8144  -21.5912   49.7990 C   0  0  0  1  0  0
   -6.8160  -22.4165   50.2209 N   0  0  0  1  0  0
   -6.2750  -23.4678   50.7937 O   0  0  0  1  0  0
   -2.0751  -25.8058   53.1578 C   0  0  0  1  0  0
   -3.4663  -26.4372   53.4070 C   0  0  0  1  0  0
   -3.7589  -27.5441   52.4523 N   0  0  0  1  0  0
   -5.0200  -28.1315   52.3698 C   0  0  0  1  0  0
   -5.1705  -29.4393   51.8565 C   0  0  0  1  0  0
   -6.4382  -30.0373   51.7702 C   0  0  0  1  0  0
   -7.5884  -29.3338   52.1746 C   0  0  0  1  0  0
   -8.9644  -29.9650   52.0363 C   0  0  0  1  0  0
   -9.7616  -30.1197   53.3368 C   0  0  0  1  0  0
  -10.8627  -30.6280   53.3021 O   0  0  0  1  0  0
   -9.2473  -29.7185   54.5009 O   0  0  0  1  0  0
   -9.1778  -31.0326   50.9708 C   0  0  0  1  0  0
   -9.7265  -29.6407   50.7575 C   0  0  0  1  0  0
   -7.4490  -28.0331   52.6924 C   0  0  0  1  0  0
   -6.1777  -27.4370   52.7907 C   0  0  0  1  0  0
   -2.6168  -27.9572   51.5874 C   0  0  0  1  0  0
   -2.0451  -26.7619   50.7986 C   0  0  0  1  0  0
   -1.6200  -23.2723   47.5156 H   0  0
    0.0417  -22.8458   47.9681 H   0  0
   -1.2897  -22.5823   49.1306 H   0  0
   -1.6621  -25.0438   49.1743 H   0  0
    0.7968  -25.1950   47.4093 H   0  0
   -0.8648  -25.6215   46.9567 H   0  0
    0.0027  -26.6018   48.1731 H   0  0
    1.8962  -24.0187   48.9655 H   0  0
    3.4565  -23.9826   50.8951 H   0  0
    2.6414  -24.5999   53.1651 H   0  0
    0.2767  -25.2577   53.5019 H   0  0
   -4.4595  -25.3075   51.6237 H   0  0
   -3.5881  -21.7483   49.9362 H   0  0
   -5.9571  -20.6392   49.2878 H   0  0
   -1.9987  -24.8912   53.7459 H   0  0
   -1.3121  -26.4874   53.5336 H   0  0
   -3.5051  -26.8258   54.4246 H   0  0
   -4.2321  -25.6683   53.3050 H   0  0
   -4.2915  -29.9910   51.5233 H   0  0
   -6.5322  -31.0535   51.3873 H   0  0
   -9.0067  -28.7085   54.3443 H   0  0
   -9.9610  -31.7339   51.2587 H   0  0
   -8.2723  -31.2017   50.3881 H   0  0
   -9.1134  -29.0691   50.0607 H   0  0
  -10.8016  -29.6009   50.9328 H   0  0
   -8.3314  -27.4833   53.0197 H   0  0
   -6.0846  -26.4293   53.1956 H   0  0
   -2.9551  -28.7199   50.8860 H   0  0
   -1.8310  -28.3832   52.2112 H   0  0
   -1.1207  -27.0762   50.3141 H   0  0
   -2.7458  -26.5026   50.0050 H   0  0
  1  2  1  0
  2  3  1  0
  2  4  1  0
  4  5  2  0
  4  9  1  0
  5  6  1  0
  6  7  2  0
  7  8  1  0
  8  9  2  0
  9 10  1  0
 10 11  1  0
 10 19  1  0
 10 35  1  0
 11 12  2  0
 11 13  1  0
 13 14  1  0
 14 15  2  0
 14 18  1  0
 15 16  1  0
 16 17  2  0
 17 18  1  0
 19 20  1  0
 20 21  1  0
 21 22  1  0
 21 34  1  0
 22 23  2  0
 22 33  1  0
 23 24  1  0
 24 25  2  0
 25 26  1  0
 25 32  1  0
 26 27  1  0
 26 30  1  0
 26 31  1  0
 27 28  2  0
 27 29  1  0
 30 31  1  0
 32 33  2  0
 34 35  1  0
  1 36  1  0
  1 37  1  0
  1 38  1  0
  2 39  1  0
  3 40  1  0
  3 41  1  0
  3 42  1  0
  5 43  1  0
  6 44  1  0
  7 45  1  0
  8 46  1  0
 13 47  1  0
 15 48  1  0
 16 49  1  0
 19 50  1  0
 19 51  1  0
 20 52  1  0
 20 53  1  0
 23 54  1  0
 24 55  1  0
 29 56  1  0
 30 57  1  0
 30 58  1  0
 31 59  1  0
 31 60  1  0
 32 61  1  0
 33 62  1  0
 34 63  1  0
 34 64  1  0
 35 65  1  0
 35 66  1  0
M  END
> <Name>
Molecule

> <AbsoluteEnergy>
52.4335

> <Clean Energy>
221.807

> <ConfNumber>
22

> <MOL_NUMBER>
3

> <RelativeEnergy>
7.25166

> <POSE_NUMBER>
18

> <LibDockScore>
126.1405

> <HotSpots>
2.67,-23.92,48.98,A,32,6
1.67,-24.32,50.98,A,50,8
-8.73,-28.12,54.38,A,70,31

$$$$
Molecule
  SciTegic05072616053D

 66 70  0  0  0  0            999 V2000
   -3.9898  -31.9753   53.7861 C   0  0  0  1  0  0
   -5.3041  -31.1654   53.8789 C   0  0  0  1  0  0
   -5.9201  -31.3801   55.2730 C   0  0  0  1  0  0
   -6.3122  -31.4083   52.7669 C   0  0  0  1  0  0
   -6.0009  -32.4418   51.8470 C   0  0  0  1  0  0
   -6.8346  -32.7558   50.7720 C   0  0  0  1  0  0
   -8.0210  -32.0509   50.5948 C   0  0  0  1  0  0
   -8.3675  -31.0411   51.4958 C   0  0  0  1  0  0
   -7.5452  -30.6718   52.5963 C   0  0  0  1  0  0
   -8.0758  -29.5303   53.5044 C   0  0  0  1  0  0
   -9.0584  -30.0699   54.5521 C   0  0  0  1  0  0
   -8.8317  -29.9114   55.7307 O   0  0  0  1  0  0
  -10.2097  -30.7295   54.1736 N   0  0  0  1  0  0
  -11.2314  -31.1736   55.1428 C   0  0  0  1  0  0
  -12.4691  -31.6988   54.7989 C   0  0  0  1  0  0
  -13.0691  -31.9647   56.0259 C   0  0  0  1  0  0
  -12.2201  -31.6124   57.0332 N   0  0  0  1  0  0
  -11.1173  -31.1366   56.4993 O   0  0  0  1  0  0
   -8.8383  -28.4146   52.7143 C   0  0  0  1  0  0
   -7.9775  -27.6847   51.6607 C   0  0  0  1  0  0
   -6.6689  -27.1859   52.1975 N   0  0  0  1  0  0
   -6.0728  -26.0185   51.7160 C   0  0  0  1  0  0
   -6.7803  -25.1083   50.8962 C   0  0  0  1  0  0
   -6.1514  -23.9604   50.3880 C   0  0  0  1  0  0
   -4.8070  -23.6922   50.6984 C   0  0  0  1  0  0
   -4.1255  -22.4751   50.1260 C   0  0  0  1  0  0
   -4.0465  -22.5215   48.6093 C   0  0  0  1  0  0
   -2.9641  -22.4750   48.0708 O   0  0  0  1  0  0
   -5.1770  -22.6197   47.9106 O   0  0  0  1  0  0
   -2.9938  -21.8142   50.8981 C   0  0  0  1  0  0
   -4.3303  -21.1212   50.7883 C   0  0  0  1  0  0
   -4.1008  -24.5708   51.5367 C   0  0  0  1  0  0
   -4.7272  -25.7216   52.0398 C   0  0  0  1  0  0
   -5.9894  -28.0166   53.2401 C   0  0  0  1  0  0
   -6.9892  -28.6727   54.2129 C   0  0  0  1  0  0
   -4.1974  -33.0356   53.9305 H   0  0
   -3.2893  -31.6328   54.5478 H   0  0
   -3.5472  -31.8283   52.8009 H   0  0
   -5.0329  -30.1197   53.7336 H   0  0
   -5.2276  -31.0351   56.0408 H   0  0
   -6.1357  -32.4379   55.4236 H   0  0
   -6.8475  -30.8120   55.3462 H   0  0
   -5.0806  -33.0096   51.9837 H   0  0
   -6.5579  -33.5479   50.0762 H   0  0
   -8.6772  -32.2855   49.7567 H   0  0
   -9.3096  -30.5128   51.3491 H   0  0
  -10.3688  -30.9275   53.1342 H   0  0
  -12.8759  -31.8643   53.8013 H   0  0
  -14.0640  -32.3890   56.1610 H   0  0
   -9.6976  -28.8623   52.2151 H   0  0
   -9.2214  -27.6802   53.4228 H   0  0
   -7.7811  -28.3650   50.8320 H   0  0
   -8.5411  -26.8388   51.2671 H   0  0
   -7.8261  -25.3004   50.6562 H   0  0
   -6.7082  -23.2742   49.7499 H   0  0
   -5.7604  -21.8011   48.2141 H   0  0
   -2.2559  -21.3736   50.2277 H   0  0
   -2.8574  -22.2726   51.8776 H   0  0
   -4.9061  -21.2095   51.7096 H   0  0
   -4.3051  -20.3117   50.0588 H   0  0
   -3.0639  -24.3583   51.7971 H   0  0
   -4.1695  -26.3964   52.6892 H   0  0
   -5.3037  -27.3866   53.8066 H   0  0
   -5.4070  -28.7964   52.7493 H   0  0
   -6.4386  -29.3045   54.9099 H   0  0
   -7.4795  -27.8913   54.7936 H   0  0
  1  2  1  0
  2  3  1  0
  2  4  1  0
  4  5  2  0
  4  9  1  0
  5  6  1  0
  6  7  2  0
  7  8  1  0
  8  9  2  0
  9 10  1  0
 10 11  1  0
 10 19  1  0
 10 35  1  0
 11 12  2  0
 11 13  1  0
 13 14  1  0
 14 15  2  0
 14 18  1  0
 15 16  1  0
 16 17  2  0
 17 18  1  0
 19 20  1  0
 20 21  1  0
 21 22  1  0
 21 34  1  0
 22 23  2  0
 22 33  1  0
 23 24  1  0
 24 25  2  0
 25 26  1  0
 25 32  1  0
 26 27  1  0
 26 30  1  0
 26 31  1  0
 27 28  2  0
 27 29  1  0
 30 31  1  0
 32 33  2  0
 34 35  1  0
  1 36  1  0
  1 37  1  0
  1 38  1  0
  2 39  1  0
  3 40  1  0
  3 41  1  0
  3 42  1  0
  5 43  1  0
  6 44  1  0
  7 45  1  0
  8 46  1  0
 13 47  1  0
 15 48  1  0
 16 49  1  0
 19 50  1  0
 19 51  1  0
 20 52  1  0
 20 53  1  0
 23 54  1  0
 24 55  1  0
 29 56  1  0
 30 57  1  0
 30 58  1  0
 31 59  1  0
 31 60  1  0
 32 61  1  0
 33 62  1  0
 34 63  1  0
 34 64  1  0
 35 65  1  0
 35 66  1  0
M  END
> <Name>
Molecule

> <AbsoluteEnergy>
54.1182

> <Clean Energy>
221.807

> <ConfNumber>
25

> <MOL_NUMBER>
3

> <RelativeEnergy>
8.93638

> <POSE_NUMBER>
19

> <LibDockScore>
125.8833

> <HotSpots>
-12.93,-31.72,54.98,A,73,16
-7.93,-28.32,52.38,A,59,19
-5.13,-23.32,51.38,A,54,24

$$$$
Molecule
  SciTegic05072616053D

 66 70  0  0  0  0            999 V2000
    0.0322  -26.1027   53.4347 C   0  0  0  1  0  0
    0.7006  -24.7635   53.0502 C   0  0  0  1  0  0
    0.1764  -23.4943   53.7558 C   0  0  0  1  0  0
    1.1027  -24.5535   51.5919 C   0  0  0  1  0  0
    2.4637  -24.1764   51.4439 C   0  0  0  1  0  0
    3.0622  -24.0008   50.1957 C   0  0  0  1  0  0
    2.3099  -24.2046   49.0456 C   0  0  0  1  0  0
    0.9589  -24.5479   49.1519 C   0  0  0  1  0  0
    0.2870  -24.6899   50.4008 C   0  0  0  1  0  0
   -1.2334  -24.9782   50.3330 C   0  0  0  1  0  0
   -1.9406  -24.1452   49.2313 C   0  0  0  1  0  0
   -1.9164  -22.9357   49.2940 O   0  0  0  1  0  0
   -2.6150  -24.7400   48.1778 N   0  0  0  1  0  0
   -3.5599  -24.0320   47.2885 C   0  0  0  1  0  0
   -3.8626  -22.6763   47.3048 C   0  0  0  1  0  0
   -4.8246  -22.5377   46.3100 C   0  0  0  1  0  0
   -5.0612  -23.7503   45.7335 N   0  0  0  1  0  0
   -4.2982  -24.6458   46.3224 O   0  0  0  1  0  0
   -1.4993  -26.4951   50.1121 C   0  0  0  1  0  0
   -2.9934  -26.8847   50.0587 C   0  0  0  1  0  0
   -3.8257  -26.2958   51.1593 N   0  0  0  1  0  0
   -4.8980  -26.9919   51.7224 C   0  0  0  1  0  0
   -4.9179  -28.4045   51.7796 C   0  0  0  1  0  0
   -6.0273  -29.0913   52.3076 C   0  0  0  1  0  0
   -7.1402  -28.3801   52.7940 C   0  0  0  1  0  0
   -8.3565  -29.1084   53.3316 C   0  0  0  1  0  0
   -8.8193  -28.6173   54.7006 C   0  0  0  1  0  0
   -9.3387  -27.5286   54.7882 O   0  0  0  1  0  0
   -8.6622  -29.3875   55.7808 O   0  0  0  1  0  0
   -9.4409  -29.5154   52.3434 C   0  0  0  1  0  0
   -8.5762  -30.5737   52.9806 C   0  0  0  1  0  0
   -7.1174  -26.9741   52.7700 C   0  0  0  1  0  0
   -6.0071  -26.2890   52.2484 C   0  0  0  1  0  0
   -3.5158  -24.8962   51.5883 C   0  0  0  1  0  0
   -2.0045  -24.5850   51.6255 C   0  0  0  1  0  0
   -1.0317  -25.9804   53.2316 H   0  0
    0.1529  -26.2036   54.5133 H   0  0
    0.4515  -26.9542   52.8988 H   0  0
    1.6667  -24.9401   53.5231 H   0  0
    0.2929  -23.6713   54.8250 H   0  0
   -0.8917  -23.4481   53.5434 H   0  0
    0.6924  -22.5888   53.4366 H   0  0
    3.0640  -24.0180   52.3398 H   0  0
    4.1093  -23.7067   50.1237 H   0  0
    2.7714  -24.0972   48.0640 H   0  0
    0.3923  -24.7150   48.2359 H   0  0
   -2.4406  -25.7799   47.9958 H   0  0
   -3.4438  -21.9018   47.9474 H   0  0
   -5.3139  -21.6037   46.0339 H   0  0
   -1.0251  -26.8016   49.1798 H   0  0
   -1.0210  -27.0560   50.9150 H   0  0
   -3.4053  -26.5665   49.1010 H   0  0
   -3.0759  -27.9707   50.1018 H   0  0
   -4.0623  -28.9695   51.4097 H   0  0
   -6.0245  -30.1808   52.3400 H   0  0
   -7.6344  -29.6010   55.8042 H   0  0
   -9.1402  -29.3150   51.3150 H   0  0
  -10.4306  -29.4761   52.7984 H   0  0
   -9.1042  -31.1003   53.7756 H   0  0
   -7.8129  -30.9381   52.2930 H   0  0
   -7.9667  -26.4122   53.1586 H   0  0
   -6.0003  -25.1990   52.2491 H   0  0
   -3.9346  -24.7299   52.5808 H   0  0
   -4.0023  -24.2018   50.9033 H   0  0
   -1.8721  -23.5177   51.8028 H   0  0
   -1.5605  -25.1094   52.4717 H   0  0
  1  2  1  0
  2  3  1  0
  2  4  1  0
  4  5  2  0
  4  9  1  0
  5  6  1  0
  6  7  2  0
  7  8  1  0
  8  9  2  0
  9 10  1  0
 10 11  1  0
 10 19  1  0
 10 35  1  0
 11 12  2  0
 11 13  1  0
 13 14  1  0
 14 15  2  0
 14 18  1  0
 15 16  1  0
 16 17  2  0
 17 18  1  0
 19 20  1  0
 20 21  1  0
 21 22  1  0
 21 34  1  0
 22 23  2  0
 22 33  1  0
 23 24  1  0
 24 25  2  0
 25 26  1  0
 25 32  1  0
 26 27  1  0
 26 30  1  0
 26 31  1  0
 27 28  2  0
 27 29  1  0
 30 31  1  0
 32 33  2  0
 34 35  1  0
  1 36  1  0
  1 37  1  0
  1 38  1  0
  2 39  1  0
  3 40  1  0
  3 41  1  0
  3 42  1  0
  5 43  1  0
  6 44  1  0
  7 45  1  0
  8 46  1  0
 13 47  1  0
 15 48  1  0
 16 49  1  0
 19 50  1  0
 19 51  1  0
 20 52  1  0
 20 53  1  0
 23 54  1  0
 24 55  1  0
 29 56  1  0
 30 57  1  0
 30 58  1  0
 31 59  1  0
 31 60  1  0
 32 61  1  0
 33 62  1  0
 34 63  1  0
 34 64  1  0
 35 65  1  0
 35 66  1  0
M  END
> <Name>
Molecule

> <AbsoluteEnergy>
64.978

> <Clean Energy>
221.807

> <ConfNumber>
79

> <MOL_NUMBER>
3

> <RelativeEnergy>
19.7962

> <POSE_NUMBER>
20

> <LibDockScore>
125.5576

> <HotSpots>
2.27,-24.92,52.19,A,58,5
-9.33,-29.92,51.19,A,52,31
-6.33,-26.32,51.98,A,57,33

$$$$
Molecule
  SciTegic05072616053D

 66 70  0  0  0  0            999 V2000
    2.3989  -24.2014   48.7787 C   0  0  0  1  0  0
    1.1912  -24.8348   48.0612 C   0  0  0  1  0  0
    1.6378  -25.6204   46.8115 C   0  0  0  1  0  0
    0.1266  -23.8068   47.7426 C   0  0  0  1  0  0
    0.4547  -22.8723   46.7328 C   0  0  0  1  0  0
   -0.4247  -21.8470   46.3729 C   0  0  0  1  0  0
   -1.6528  -21.7307   47.0260 C   0  0  0  1  0  0
   -2.0033  -22.6482   48.0239 C   0  0  0  1  0  0
   -1.1511  -23.7250   48.3944 C   0  0  0  1  0  0
   -1.6242  -24.7215   49.4716 C   0  0  0  1  0  0
   -2.9461  -24.2957   50.1572 C   0  0  0  1  0  0
   -2.9425  -23.8904   51.2978 O   0  0  0  1  0  0
   -4.1535  -24.3695   49.4883 N   0  0  0  1  0  0
   -5.3924  -23.7596   50.0123 C   0  0  0  1  0  0
   -6.6512  -23.9232   49.4528 C   0  0  0  1  0  0
   -7.4822  -23.1808   50.2854 C   0  0  0  1  0  0
   -6.7422  -22.6196   51.2840 N   0  0  0  1  0  0
   -5.4850  -22.9654   51.1136 O   0  0  0  1  0  0
   -1.8713  -26.1739   48.9006 C   0  0  0  1  0  0
   -1.3241  -27.3176   49.7821 C   0  0  0  1  0  0
   -1.5295  -27.0148   51.2250 N   0  0  0  1  0  0
   -2.3323  -27.8022   52.0463 C   0  0  0  1  0  0
   -2.5430  -27.4633   53.4033 C   0  0  0  1  0  0
   -3.3471  -28.2657   54.2278 C   0  0  0  1  0  0
   -3.9628  -29.4192   53.7128 C   0  0  0  1  0  0
   -4.8247  -30.2925   54.6005 C   0  0  0  1  0  0
   -4.0687  -30.9138   55.7838 C   0  0  0  1  0  0
   -3.1448  -30.3124   56.2835 O   0  0  0  1  0  0
   -4.4223  -32.1098   56.2626 O   0  0  0  1  0  0
   -5.9333  -31.0859   53.9242 C   0  0  0  1  0  0
   -6.2831  -29.9100   54.8041 C   0  0  0  1  0  0
   -3.7701  -29.7606   52.3631 C   0  0  0  1  0  0
   -2.9604  -28.9624   51.5388 C   0  0  0  1  0  0
   -0.8229  -25.7973   51.7233 C   0  0  0  1  0  0
   -0.5312  -24.7813   50.5936 C   0  0  0  1  0  0
    2.9051  -23.5283   48.0868 H   0  0
    3.0876  -24.9933   49.0730 H   0  0
    2.0678  -23.6502   49.6588 H   0  0
    0.7352  -25.5504   48.7453 H   0  0
    2.3313  -26.4035   47.1181 H   0  0
    2.1488  -24.9384   46.1319 H   0  0
    0.7736  -26.0621   46.3153 H   0  0
    1.4151  -22.9535   46.2237 H   0  0
   -0.1530  -21.1425   45.5868 H   0  0
   -2.3384  -20.9263   46.7594 H   0  0
   -2.9601  -22.5335   48.5333 H   0  0
   -4.1921  -24.8891   48.5537 H   0  0
   -6.9249  -24.4985   48.5683 H   0  0
   -8.5587  -23.0654   50.1591 H   0  0
   -1.4138  -26.2457   47.9139 H   0  0
   -2.9432  -26.3198   48.7667 H   0  0
   -0.2587  -27.4442   49.5897 H   0  0
   -1.8408  -28.2442   49.5322 H   0  0
   -2.0753  -26.5683   53.8137 H   0  0
   -3.4947  -27.9928   55.2727 H   0  0
   -4.3747  -32.7479   55.4301 H   0  0
   -6.1124  -32.0345   54.4304 H   0  0
   -6.0154  -30.8356   52.8665 H   0  0
   -6.5527  -29.0332   54.2153 H   0  0
   -6.6480  -30.2318   55.7795 H   0  0
   -4.2514  -30.6490   51.9542 H   0  0
   -2.8145  -29.2409   50.4951 H   0  0
    0.1184  -26.0955   52.1851 H   0  0
   -1.4373  -25.3163   52.4844 H   0  0
   -0.4259  -23.7901   51.0346 H   0  0
    0.4262  -25.0325   50.1370 H   0  0
  1  2  1  0
  2  3  1  0
  2  4  1  0
  4  5  2  0
  4  9  1  0
  5  6  1  0
  6  7  2  0
  7  8  1  0
  8  9  2  0
  9 10  1  0
 10 11  1  0
 10 19  1  0
 10 35  1  0
 11 12  2  0
 11 13  1  0
 13 14  1  0
 14 15  2  0
 14 18  1  0
 15 16  1  0
 16 17  2  0
 17 18  1  0
 19 20  1  0
 20 21  1  0
 21 22  1  0
 21 34  1  0
 22 23  2  0
 22 33  1  0
 23 24  1  0
 24 25  2  0
 25 26  1  0
 25 32  1  0
 26 27  1  0
 26 30  1  0
 26 31  1  0
 27 28  2  0
 27 29  1  0
 30 31  1  0
 32 33  2  0
 34 35  1  0
  1 36  1  0
  1 37  1  0
  1 38  1  0
  2 39  1  0
  3 40  1  0
  3 41  1  0
  3 42  1  0
  5 43  1  0
  6 44  1  0
  7 45  1  0
  8 46  1  0
 13 47  1  0
 15 48  1  0
 16 49  1  0
 19 50  1  0
 19 51  1  0
 20 52  1  0
 20 53  1  0
 23 54  1  0
 24 55  1  0
 29 56  1  0
 30 57  1  0
 30 58  1  0
 31 59  1  0
 31 60  1  0
 32 61  1  0
 33 62  1  0
 34 63  1  0
 34 64  1  0
 35 65  1  0
 35 66  1  0
M  END
> <Name>
Molecule

> <AbsoluteEnergy>
55.5555

> <Clean Energy>
221.807

> <ConfNumber>
36

> <MOL_NUMBER>
3

> <RelativeEnergy>
10.3736

> <POSE_NUMBER>
21

> <LibDockScore>
125.5303

> <HotSpots>
2.67,-23.92,48.98,A,32,1
1.87,-24.92,46.78,A,22,3
-6.53,-30.72,51.78,A,56,30

$$$$
Molecule
  SciTegic05072616053D

 66 70  0  0  0  0            999 V2000
   -2.4632  -22.4736   48.1578 C   0  0  0  1  0  0
   -3.3291  -23.7093   48.5017 C   0  0  0  1  0  0
   -3.9514  -24.2958   47.2205 C   0  0  0  1  0  0
   -4.3881  -23.4696   49.5570 C   0  0  0  1  0  0
   -5.3128  -22.4296   49.2851 C   0  0  0  1  0  0
   -6.3267  -22.0858   50.1846 C   0  0  0  1  0  0
   -6.4485  -22.7840   51.3837 C   0  0  0  1  0  0
   -5.5648  -23.8278   51.6689 C   0  0  0  1  0  0
   -4.5268  -24.2161   50.7818 C   0  0  0  1  0  0
   -3.7030  -25.4189   51.2743 C   0  0  0  1  0  0
   -4.6271  -26.6528   51.2255 C   0  0  0  1  0  0
   -4.4503  -27.4804   50.3602 O   0  0  0  1  0  0
   -5.6292  -26.8627   52.1503 N   0  0  0  1  0  0
   -6.3725  -28.1347   52.2445 C   0  0  0  1  0  0
   -7.5661  -28.3017   52.9312 C   0  0  0  1  0  0
   -7.8617  -29.6504   52.7599 C   0  0  0  1  0  0
   -6.8820  -30.2394   52.0185 N   0  0  0  1  0  0
   -5.9909  -29.3244   51.7044 O   0  0  0  1  0  0
   -2.4340  -25.8710   50.4695 C   0  0  0  1  0  0
   -1.7990  -27.1852   51.0144 C   0  0  0  1  0  0
   -2.0211  -27.3014   52.4874 N   0  0  0  1  0  0
   -2.4056  -28.4868   53.1198 C   0  0  0  1  0  0
   -2.3022  -28.6294   54.5248 C   0  0  0  1  0  0
   -2.7960  -29.7730   55.1718 C   0  0  0  1  0  0
   -3.4013  -30.7977   54.4289 C   0  0  0  1  0  0
   -4.0080  -31.9818   55.1368 C   0  0  0  1  0  0
   -4.8808  -31.5500   56.3056 C   0  0  0  1  0  0
   -6.0701  -31.7630   56.2638 O   0  0  0  1  0  0
   -4.3256  -30.9319   57.3472 O   0  0  0  1  0  0
   -3.2047  -33.2660   55.2700 C   0  0  0  1  0  0
   -4.4006  -33.2218   54.3502 C   0  0  0  1  0  0
   -3.4514  -30.7029   53.0285 C   0  0  0  1  0  0
   -2.9459  -29.5644   52.3797 C   0  0  0  1  0  0
   -1.9328  -25.9863   53.1670 C   0  0  0  1  0  0
   -3.1082  -25.0883   52.7043 C   0  0  0  1  0  0
   -3.0884  -21.7197   47.6794 H   0  0
   -1.6701  -22.7713   47.4719 H   0  0
   -2.0260  -22.0635   49.0682 H   0  0
   -2.6469  -24.4319   48.9495 H   0  0
   -3.1548  -24.5891   46.5368 H   0  0
   -4.5730  -23.5376   46.7443 H   0  0
   -4.5597  -25.1653   47.4694 H   0  0
   -5.2308  -21.8815   48.3465 H   0  0
   -7.0176  -21.2763   49.9488 H   0  0
   -7.2293  -22.5173   52.0959 H   0  0
   -5.6768  -24.3656   52.6103 H   0  0
   -5.8777  -26.0716   52.8266 H   0  0
   -8.1385  -27.5518   53.4772 H   0  0
   -8.7410  -30.1574   53.1573 H   0  0
   -2.7107  -26.0188   49.4256 H   0  0
   -1.6883  -25.0768   50.5067 H   0  0
   -0.7281  -27.1814   50.8111 H   0  0
   -2.2526  -28.0403   50.5133 H   0  0
   -1.8327  -27.8402   55.1120 H   0  0
   -2.7089  -29.8652   56.2544 H   0  0
   -3.8378  -30.0978   56.9363 H   0  0
   -3.4322  -33.7856   56.2008 H   0  0
   -2.2681  -33.2108   54.7152 H   0  0
   -4.1014  -33.1442   53.3049 H   0  0
   -5.2657  -33.7174   54.7909 H   0  0
   -3.8837  -31.5149   52.4438 H   0  0
   -2.9703  -29.5105   51.2913 H   0  0
   -1.9887  -26.1300   54.2460 H   0  0
   -0.9877  -25.5068   52.9121 H   0  0
   -2.7736  -24.0509   52.7102 H   0  0
   -3.9089  -25.1613   53.4402 H   0  0
  1  2  1  0
  2  3  1  0
  2  4  1  0
  4  5  2  0
  4  9  1  0
  5  6  1  0
  6  7  2  0
  7  8  1  0
  8  9  2  0
  9 10  1  0
 10 11  1  0
 10 19  1  0
 10 35  1  0
 11 12  2  0
 11 13  1  0
 13 14  1  0
 14 15  2  0
 14 18  1  0
 15 16  1  0
 16 17  2  0
 17 18  1  0
 19 20  1  0
 20 21  1  0
 21 22  1  0
 21 34  1  0
 22 23  2  0
 22 33  1  0
 23 24  1  0
 24 25  2  0
 25 26  1  0
 25 32  1  0
 26 27  1  0
 26 30  1  0
 26 31  1  0
 27 28  2  0
 27 29  1  0
 30 31  1  0
 32 33  2  0
 34 35  1  0
  1 36  1  0
  1 37  1  0
  1 38  1  0
  2 39  1  0
  3 40  1  0
  3 41  1  0
  3 42  1  0
  5 43  1  0
  6 44  1  0
  7 45  1  0
  8 46  1  0
 13 47  1  0
 15 48  1  0
 16 49  1  0
 19 50  1  0
 19 51  1  0
 20 52  1  0
 20 53  1  0
 23 54  1  0
 24 55  1  0
 29 56  1  0
 30 57  1  0
 30 58  1  0
 31 59  1  0
 31 60  1  0
 32 61  1  0
 33 62  1  0
 34 63  1  0
 34 64  1  0
 35 65  1  0
 35 66  1  0
M  END
> <Name>
Molecule

> <AbsoluteEnergy>
58.5258

> <Clean Energy>
221.807

> <ConfNumber>
49

> <MOL_NUMBER>
3

> <RelativeEnergy>
13.344

> <POSE_NUMBER>
22

> <LibDockScore>
124.3799

> <HotSpots>
-2.93,-26.32,45.98,A,15,3
-5.53,-22.92,48.98,A,33,7
-4.13,-31.12,56.59,A,79,30

$$$$
Molecule
  SciTegic05072616053D

 66 70  0  0  0  0            999 V2000
   -3.2087  -25.8361   46.6004 C   0  0  0  1  0  0
   -3.0532  -24.3571   46.9856 C   0  0  0  1  0  0
   -1.6217  -23.8168   46.8155 C   0  0  0  1  0  0
   -3.7832  -23.8577   48.2329 C   0  0  0  1  0  0
   -4.6749  -22.7838   47.9746 C   0  0  0  1  0  0
   -5.4557  -22.2011   48.9735 C   0  0  0  1  0  0
   -5.3750  -22.6871   50.2743 C   0  0  0  1  0  0
   -4.4999  -23.7345   50.5706 C   0  0  0  1  0  0
   -3.6657  -24.3439   49.5907 C   0  0  0  1  0  0
   -2.7251  -25.4697   50.0657 C   0  0  0  1  0  0
   -1.2796  -25.2665   49.5961 C   0  0  0  1  0  0
   -0.7718  -26.0496   48.8260 O   0  0  0  1  0  0
   -0.5366  -24.1978   50.0643 N   0  0  0  1  0  0
    0.9024  -24.0301   49.7739 C   0  0  0  1  0  0
    1.7309  -23.1007   50.3879 C   0  0  0  1  0  0
    2.9684  -23.3071   49.7847 C   0  0  0  1  0  0
    2.8650  -24.3096   48.8669 N   0  0  0  1  0  0
    1.6236  -24.7448   48.8658 O   0  0  0  1  0  0
   -3.3613  -26.8416   49.6616 C   0  0  0  1  0  0
   -2.6112  -28.0912   50.1670 C   0  0  0  1  0  0
   -2.4288  -28.0254   51.6413 N   0  0  0  1  0  0
   -2.8965  -29.0033   52.5151 C   0  0  0  1  0  0
   -2.5255  -28.9870   53.8791 C   0  0  0  1  0  0
   -3.0607  -29.9209   54.7801 C   0  0  0  1  0  0
   -3.9663  -30.8951   54.3307 C   0  0  0  1  0  0
   -4.6153  -31.8483   55.3073 C   0  0  0  1  0  0
   -5.9956  -31.3725   55.7640 C   0  0  0  1  0  0
   -6.2431  -30.1856   55.7852 O   0  0  0  1  0  0
   -6.9041  -32.2760   56.1316 O   0  0  0  1  0  0
   -3.7315  -32.6174   56.2796 C   0  0  0  1  0  0
   -4.4009  -33.3442   55.1374 C   0  0  0  1  0  0
   -4.2922  -30.9665   52.9659 C   0  0  0  1  0  0
   -3.7664  -30.0256   52.0664 C   0  0  0  1  0  0
   -1.7636  -26.7810   52.1140 C   0  0  0  1  0  0
   -2.5811  -25.5668   51.6309 C   0  0  0  1  0  0
   -2.5230  -26.4116   47.2223 H   0  0
   -2.8988  -25.9392   45.5605 H   0  0
   -4.2349  -26.1779   46.7353 H   0  0
   -3.6502  -23.8724   46.2131 H   0  0
   -1.3398  -23.9556   45.7718 H   0  0
   -0.9641  -24.4279   47.4337 H   0  0
   -1.5554  -22.7664   47.0991 H   0  0
   -4.7526  -22.3998   46.9574 H   0  0
   -6.1230  -21.3724   48.7366 H   0  0
   -5.9927  -22.2519   51.0599 H   0  0
   -4.4535  -24.1012   51.5960 H   0  0
   -1.0261  -23.4591   50.6639 H   0  0
    1.4727  -22.3779   51.1618 H   0  0
    3.8792  -22.7528   50.0113 H   0  0
   -3.4237  -26.8910   48.5745 H   0  0
   -4.3839  -26.8754   50.0373 H   0  0
   -1.6349  -28.1471   49.6855 H   0  0
   -3.1842  -28.9834   49.9143 H   0  0
   -1.8156  -28.2405   54.2353 H   0  0
   -2.7726  -29.8897   55.8309 H   0  0
   -6.4441  -32.8294   56.8962 H   0  0
   -4.2414  -32.7989   57.2257 H   0  0
   -2.6739  -32.4434   56.0811 H   0  0
   -3.6994  -33.5590   54.3313 H   0  0
   -5.2672  -33.9130   55.4752 H   0  0
   -4.9542  -31.7536   52.6049 H   0  0
   -4.0311  -30.0830   51.0106 H   0  0
   -1.7203  -26.7810   53.2031 H   0  0
   -0.7548  -26.7269   51.7048 H   0  0
   -2.1064  -24.6567   51.9977 H   0  0
   -3.5756  -25.6157   52.0743 H   0  0
  1  2  1  0
  2  3  1  0
  2  4  1  0
  4  5  2  0
  4  9  1  0
  5  6  1  0
  6  7  2  0
  7  8  1  0
  8  9  2  0
  9 10  1  0
 10 11  1  0
 10 19  1  0
 10 35  1  0
 11 12  2  0
 11 13  1  0
 13 14  1  0
 14 15  2  0
 14 18  1  0
 15 16  1  0
 16 17  2  0
 17 18  1  0
 19 20  1  0
 20 21  1  0
 21 22  1  0
 21 34  1  0
 22 23  2  0
 22 33  1  0
 23 24  1  0
 24 25  2  0
 25 26  1  0
 25 32  1  0
 26 27  1  0
 26 30  1  0
 26 31  1  0
 27 28  2  0
 27 29  1  0
 30 31  1  0
 32 33  2  0
 34 35  1  0
  1 36  1  0
  1 37  1  0
  1 38  1  0
  2 39  1  0
  3 40  1  0
  3 41  1  0
  3 42  1  0
  5 43  1  0
  6 44  1  0
  7 45  1  0
  8 46  1  0
 13 47  1  0
 15 48  1  0
 16 49  1  0
 19 50  1  0
 19 51  1  0
 20 52  1  0
 20 53  1  0
 23 54  1  0
 24 55  1  0
 29 56  1  0
 30 57  1  0
 30 58  1  0
 31 59  1  0
 31 60  1  0
 32 61  1  0
 33 62  1  0
 34 63  1  0
 34 64  1  0
 35 65  1  0
 35 66  1  0
M  END
> <Name>
Molecule

> <AbsoluteEnergy>
59.1168

> <Clean Energy>
221.807

> <ConfNumber>
55

> <MOL_NUMBER>
3

> <RelativeEnergy>
13.9349

> <POSE_NUMBER>
23

> <LibDockScore>
123.2061

> <HotSpots>
-2.93,-26.32,45.98,A,15,1
-5.53,-22.92,48.98,A,33,7
2.67,-23.92,48.98,A,32,16

$$$$
Molecule
  SciTegic05072616053D

 66 70  0  0  0  0            999 V2000
    0.0696  -23.7172   47.5782 C   0  0  0  1  0  0
    0.0291  -25.0018   48.4269 C   0  0  0  1  0  0
    1.0321  -26.0500   47.9072 C   0  0  0  1  0  0
    0.2245  -24.7077   49.8978 C   0  0  0  1  0  0
    1.4733  -24.1656   50.2778 C   0  0  0  1  0  0
    1.7664  -23.8831   51.6160 C   0  0  0  1  0  0
    0.8101  -24.1330   52.6023 C   0  0  0  1  0  0
   -0.4398  -24.6527   52.2464 C   0  0  0  1  0  0
   -0.7728  -24.9468   50.8988 C   0  0  0  1  0  0
   -2.1652  -25.5022   50.5716 C   0  0  0  1  0  0
   -2.6179  -25.1205   49.1569 C   0  0  0  1  0  0
   -2.8098  -25.9821   48.3293 O   0  0  0  1  0  0
   -2.8256  -23.7996   48.8181 N   0  0  0  1  0  0
   -3.5689  -23.4180   47.6020 C   0  0  0  1  0  0
   -3.7085  -22.1238   47.1222 C   0  0  0  1  0  0
   -4.5065  -22.2778   45.9919 C   0  0  0  1  0  0
   -4.8111  -23.5965   45.8236 N   0  0  0  1  0  0
   -4.2443  -24.2785   46.7922 O   0  0  0  1  0  0
   -3.2906  -24.9449   51.4986 C   0  0  0  1  0  0
   -4.6792  -25.5186   51.1777 C   0  0  0  1  0  0
   -4.6850  -27.0058   51.2761 N   0  0  0  1  0  0
   -5.7199  -27.6591   51.9347 C   0  0  0  1  0  0
   -6.9234  -26.9687   52.1988 C   0  0  0  1  0  0
   -7.9502  -27.5757   52.9361 C   0  0  0  1  0  0
   -7.7917  -28.8860   53.4198 C   0  0  0  1  0  0
   -8.8504  -29.5026   54.3065 C   0  0  0  1  0  0
   -8.7324  -29.0356   55.7607 C   0  0  0  1  0  0
   -9.4723  -29.5017   56.5998 O   0  0  0  1  0  0
   -7.8081  -28.1197   56.0681 O   0  0  0  1  0  0
  -10.2364  -29.7633   53.7361 C   0  0  0  1  0  0
   -9.3118  -30.9233   54.0193 C   0  0  0  1  0  0
   -6.6296  -29.6090   53.0994 C   0  0  0  1  0  0
   -5.5985  -29.0008   52.3639 C   0  0  0  1  0  0
   -3.5497  -27.7356   50.6346 C   0  0  0  1  0  0
   -2.1823  -27.0404   50.8360 C   0  0  0  1  0  0
   -0.1719  -23.9728   46.5465 H   0  0
    1.0785  -23.3062   47.6151 H   0  0
   -0.6452  -22.9880   47.9597 H   0  0
   -0.9670  -25.4321   48.3230 H   0  0
    2.0338  -25.6216   47.9417 H   0  0
    0.7835  -26.2882   46.8730 H   0  0
    0.9898  -26.9512   48.5189 H   0  0
    2.2229  -23.9636   49.5127 H   0  0
    2.7375  -23.4695   51.8878 H   0  0
    1.0366  -23.9237   53.6478 H   0  0
   -1.1784  -24.8367   53.0266 H   0  0
   -2.4375  -23.0315   49.4539 H   0  0
   -3.2920  -21.2041   47.5330 H   0  0
   -4.8372  -21.4684   45.3411 H   0  0
   -3.3262  -23.8599   51.4009 H   0  0
   -3.0436  -25.1774   52.5345 H   0  0
   -4.9653  -25.2257   50.1675 H   0  0
   -5.4072  -25.1106   51.8788 H   0  0
   -7.0555  -25.9532   51.8255 H   0  0
   -8.8730  -27.0305   53.1345 H   0  0
   -8.0132  -27.3007   55.4439 H   0  0
  -10.2803  -29.5348   52.6712 H   0  0
  -11.0075  -29.6676   54.5005 H   0  0
   -9.5910  -31.4460   54.9341 H   0  0
   -8.8627  -31.3122   53.1054 H   0  0
   -6.5280  -30.6450   53.4226 H   0  0
   -4.6990  -29.5671   52.1226 H   0  0
   -3.4986  -28.7425   51.0490 H   0  0
   -3.7459  -27.8259   49.5662 H   0  0
   -1.4527  -27.5142   50.1792 H   0  0
   -1.8486  -27.2222   51.8576 H   0  0
  1  2  1  0
  2  3  1  0
  2  4  1  0
  4  5  2  0
  4  9  1  0
  5  6  1  0
  6  7  2  0
  7  8  1  0
  8  9  2  0
  9 10  1  0
 10 11  1  0
 10 19  1  0
 10 35  1  0
 11 12  2  0
 11 13  1  0
 13 14  1  0
 14 15  2  0
 14 18  1  0
 15 16  1  0
 16 17  2  0
 17 18  1  0
 19 20  1  0
 20 21  1  0
 21 22  1  0
 21 34  1  0
 22 23  2  0
 22 33  1  0
 23 24  1  0
 24 25  2  0
 25 26  1  0
 25 32  1  0
 26 27  1  0
 26 30  1  0
 26 31  1  0
 27 28  2  0
 27 29  1  0
 30 31  1  0
 32 33  2  0
 34 35  1  0
  1 36  1  0
  1 37  1  0
  1 38  1  0
  2 39  1  0
  3 40  1  0
  3 41  1  0
  3 42  1  0
  5 43  1  0
  6 44  1  0
  7 45  1  0
  8 46  1  0
 13 47  1  0
 15 48  1  0
 16 49  1  0
 19 50  1  0
 19 51  1  0
 20 52  1  0
 20 53  1  0
 23 54  1  0
 24 55  1  0
 29 56  1  0
 30 57  1  0
 30 58  1  0
 31 59  1  0
 31 60  1  0
 32 61  1  0
 33 62  1  0
 34 63  1  0
 34 64  1  0
 35 65  1  0
 35 66  1  0
M  END
> <Name>
Molecule

> <AbsoluteEnergy>
47.7571

> <Clean Energy>
221.807

> <ConfNumber>
4

> <MOL_NUMBER>
3

> <RelativeEnergy>
2.57522

> <POSE_NUMBER>
24

> <LibDockScore>
123.2054

> <HotSpots>
1.67,-24.32,50.98,A,50,6
-3.53,-22.32,46.59,A,20,15
-7.93,-28.32,52.38,A,59,24

$$$$
Molecule
  SciTegic05072616053D

 66 70  0  0  0  0            999 V2000
   -2.7148  -25.3837   46.7463 C   0  0  0  1  0  0
   -2.8026  -23.9272   47.2267 C   0  0  0  1  0  0
   -1.4528  -23.1868   47.2190 C   0  0  0  1  0  0
   -3.6967  -23.6183   48.4280 C   0  0  0  1  0  0
   -4.6038  -22.5507   48.1986 C   0  0  0  1  0  0
   -5.5233  -22.1288   49.1595 C   0  0  0  1  0  0
   -5.5711  -22.7760   50.3898 C   0  0  0  1  0  0
   -4.6862  -23.8228   50.6580 C   0  0  0  1  0  0
   -3.7146  -24.2718   49.7189 C   0  0  0  1  0  0
   -2.7817  -25.4171   50.1613 C   0  0  0  1  0  0
   -1.3418  -25.2268   49.6698 C   0  0  0  1  0  0
   -0.8669  -25.9901   48.8598 O   0  0  0  1  0  0
   -0.5661  -24.1931   50.1629 N   0  0  0  1  0  0
    0.8822  -24.0757   49.8947 C   0  0  0  1  0  0
    1.7167  -23.1197   50.4575 C   0  0  0  1  0  0
    2.9624  -23.3947   49.9004 C   0  0  0  1  0  0
    2.8578  -24.4604   49.0569 N   0  0  0  1  0  0
    1.6077  -24.8700   49.0590 O   0  0  0  1  0  0
   -3.4437  -26.7741   49.7486 C   0  0  0  1  0  0
   -2.7025  -28.0411   50.2228 C   0  0  0  1  0  0
   -2.4940  -27.9995   51.6945 N   0  0  0  1  0  0
   -2.9603  -28.9835   52.5621 C   0  0  0  1  0  0
   -2.6374  -28.9423   53.9377 C   0  0  0  1  0  0
   -3.1733  -29.8844   54.8297 C   0  0  0  1  0  0
   -4.0313  -30.8916   54.3599 C   0  0  0  1  0  0
   -4.6830  -31.8559   55.3237 C   0  0  0  1  0  0
   -6.0689  -31.3904   55.7741 C   0  0  0  1  0  0
   -6.3281  -30.2059   55.7861 O   0  0  0  1  0  0
   -6.9692  -32.3001   56.1465 O   0  0  0  1  0  0
   -3.8028  -32.6289   56.2961 C   0  0  0  1  0  0
   -4.4603  -33.3493   55.1430 C   0  0  0  1  0  0
   -4.3074  -30.9864   52.9855 C   0  0  0  1  0  0
   -3.7811  -30.0376   52.0947 C   0  0  0  1  0  0
   -1.8036  -26.7713   52.1735 C   0  0  0  1  0  0
   -2.6123  -25.5391   51.7222 C   0  0  0  1  0  0
   -2.0085  -25.9017   47.3950 H   0  0
   -2.3084  -25.3723   45.7350 H   0  0
   -3.6899  -25.8703   46.7672 H   0  0
   -3.3961  -23.4764   46.4313 H   0  0
   -1.0687  -23.2142   46.1993 H   0  0
   -0.7688  -23.7436   47.8594 H   0  0
   -1.5596  -22.1591   47.5661 H   0  0
   -4.5811  -22.0412   47.2353 H   0  0
   -6.1982  -21.2994   48.9479 H   0  0
   -6.2968  -22.4672   51.1422 H   0  0
   -4.7418  -24.3172   51.6278 H   0  0
   -1.0362  -23.4446   50.7659 H   0  0
    1.4571  -22.3364   51.1696 H   0  0
    3.8796  -22.8432   50.1068 H   0  0
   -3.5254  -26.8067   48.6622 H   0  0
   -4.4601  -26.7995   50.1415 H   0  0
   -1.7355  -28.1032   49.7237 H   0  0
   -3.2921  -28.9215   49.9672 H   0  0
   -1.9644  -28.1700   54.3101 H   0  0
   -2.9228  -29.8339   55.8893 H   0  0
   -6.5054  -32.8433   56.9161 H   0  0
   -4.3188  -32.8206   57.2369 H   0  0
   -2.7446  -32.4483   56.1069 H   0  0
   -3.7518  -33.5541   54.3404 H   0  0
   -5.3264  -33.9249   55.4696 H   0  0
   -4.9311  -31.7978   52.6104 H   0  0
   -4.0071  -30.1135   51.0311 H   0  0
   -1.7417  -26.7879   53.2616 H   0  0
   -0.8013  -26.7249   51.7477 H   0  0
   -2.1188  -24.6411   52.0938 H   0  0
   -3.5997  -25.5809   52.1820 H   0  0
  1  2  1  0
  2  3  1  0
  2  4  1  0
  4  5  2  0
  4  9  1  0
  5  6  1  0
  6  7  2  0
  7  8  1  0
  8  9  2  0
  9 10  1  0
 10 11  1  0
 10 19  1  0
 10 35  1  0
 11 12  2  0
 11 13  1  0
 13 14  1  0
 14 15  2  0
 14 18  1  0
 15 16  1  0
 16 17  2  0
 17 18  1  0
 19 20  1  0
 20 21  1  0
 21 22  1  0
 21 34  1  0
 22 23  2  0
 22 33  1  0
 23 24  1  0
 24 25  2  0
 25 26  1  0
 25 32  1  0
 26 27  1  0
 26 30  1  0
 26 31  1  0
 27 28  2  0
 27 29  1  0
 30 31  1  0
 32 33  2  0
 34 35  1  0
  1 36  1  0
  1 37  1  0
  1 38  1  0
  2 39  1  0
  3 40  1  0
  3 41  1  0
  3 42  1  0
  5 43  1  0
  6 44  1  0
  7 45  1  0
  8 46  1  0
 13 47  1  0
 15 48  1  0
 16 49  1  0
 19 50  1  0
 19 51  1  0
 20 52  1  0
 20 53  1  0
 23 54  1  0
 24 55  1  0
 29 56  1  0
 30 57  1  0
 30 58  1  0
 31 59  1  0
 31 60  1  0
 32 61  1  0
 33 62  1  0
 34 63  1  0
 34 64  1  0
 35 65  1  0
 35 66  1  0
M  END
> <Name>
Molecule

> <AbsoluteEnergy>
59.1168

> <Clean Energy>
221.807

> <ConfNumber>
55

> <MOL_NUMBER>
3

> <RelativeEnergy>
13.9349

> <POSE_NUMBER>
25

> <LibDockScore>
122.7995

> <HotSpots>
-0.93,-23.32,46.98,A,25,3
-5.53,-22.92,48.98,A,33,7
-4.33,-32.92,55.19,A,75,30

$$$$
Molecule
  SciTegic05072616053D

 66 70  0  0  0  0            999 V2000
   -8.3377  -29.3686   55.7388 C   0  0  0  1  0  0
   -8.2541  -28.3961   54.5446 C   0  0  0  1  0  0
   -9.1576  -27.1684   54.7671 C   0  0  0  1  0  0
   -8.5503  -29.0803   53.2263 C   0  0  0  1  0  0
   -9.8951  -29.4668   53.0130 C   0  0  0  1  0  0
  -10.2849  -30.1196   51.8407 C   0  0  0  1  0  0
   -9.3363  -30.4003   50.8561 C   0  0  0  1  0  0
   -7.9959  -30.0255   51.0430 C   0  0  0  1  0  0
   -7.5608  -29.3575   52.2189 C   0  0  0  1  0  0
   -6.0695  -28.9809   52.3931 C   0  0  0  1  0  0
   -5.5685  -29.5550   53.7424 C   0  0  0  1  0  0
   -5.0043  -28.8218   54.5204 O   0  0  0  1  0  0
   -5.8009  -30.8869   54.0911 N   0  0  0  1  0  0
   -5.3062  -31.5825   55.3102 C   0  0  0  1  0  0
   -4.3524  -31.1316   56.2159 C   0  0  0  1  0  0
   -4.3255  -32.1166   57.2032 C   0  0  0  1  0  0
   -5.2133  -33.1022   56.8923 N   0  0  0  1  0  0
   -5.7852  -32.7900   55.7479 O   0  0  0  1  0  0
   -5.9377  -27.4235   52.2360 C   0  0  0  1  0  0
   -4.5095  -26.8259   52.1969 C   0  0  0  1  0  0
   -3.6167  -27.4734   51.1891 N   0  0  0  1  0  0
   -2.7451  -26.7449   50.3397 C   0  0  0  1  0  0
   -1.9598  -27.4121   49.3613 C   0  0  0  1  0  0
   -1.0393  -26.7153   48.5509 C   0  0  0  1  0  0
   -0.8665  -25.3272   48.6890 C   0  0  0  1  0  0
    0.1809  -24.5853   47.8606 C   0  0  0  1  0  0
    1.5693  -24.5321   48.5170 C   0  0  0  1  0  0
    2.1885  -23.4832   48.5550 O   0  0  0  1  0  0
    2.0560  -25.6651   49.0352 O   0  0  0  1  0  0
   -0.2573  -23.3905   47.0248 C   0  0  0  1  0  0
    0.1150  -24.6843   46.3426 C   0  0  0  1  0  0
   -1.6677  -24.6363   49.6148 C   0  0  0  1  0  0
   -2.5937  -25.3304   50.4235 C   0  0  0  1  0  0
   -3.6853  -28.9727   51.2195 C   0  0  0  1  0  0
   -5.1397  -29.5225   51.2522 C   0  0  0  1  0  0
   -9.3715  -29.6936   55.8561 H   0  0
   -8.0244  -28.8446   56.6418 H   0  0
   -7.6940  -30.2314   55.5674 H   0  0
   -7.2240  -28.0447   54.4851 H   0  0
   -8.8394  -26.6576   55.6759 H   0  0
  -10.1865  -27.5066   54.8902 H   0  0
   -9.0883  -26.4908   53.9161 H   0  0
  -10.6410  -29.2510   53.7780 H   0  0
  -11.3259  -30.4085   51.6957 H   0  0
   -9.6362  -30.9110   49.9411 H   0  0
   -7.2687  -30.2536   50.2637 H   0  0
   -6.3941  -31.4654   53.4140 H   0  0
   -3.7609  -30.2174   56.1658 H   0  0
   -3.6906  -32.1003   58.0890 H   0  0
   -6.4822  -26.9493   53.0526 H   0  0
   -6.4554  -27.1269   51.3238 H   0  0
   -4.0563  -26.9265   53.1831 H   0  0
   -4.5780  -25.7614   51.9727 H   0  0
   -2.0715  -28.4889   49.2339 H   0  0
   -0.4551  -27.2596   47.8089 H   0  0
    2.0585  -26.3595   48.2476 H   0  0
    0.5367  -22.6484   46.9410 H   0  0
   -1.3378  -23.2517   47.0626 H   0  0
   -0.7669  -25.2352   46.0158 H   0  0
    1.1079  -24.6326   45.8957 H   0  0
   -1.5731  -23.5545   49.7091 H   0  0
   -3.2077  -24.7708   51.1291 H   0  0
   -3.1783  -29.3669   50.3388 H   0  0
   -3.1516  -29.3334   52.0988 H   0  0
   -5.0943  -30.6087   51.3313 H   0  0
   -5.6094  -29.3072   50.2924 H   0  0
  1  2  1  0
  2  3  1  0
  2  4  1  0
  4  5  2  0
  4  9  1  0
  5  6  1  0
  6  7  2  0
  7  8  1  0
  8  9  2  0
  9 10  1  0
 10 11  1  0
 10 19  1  0
 10 35  1  0
 11 12  2  0
 11 13  1  0
 13 14  1  0
 14 15  2  0
 14 18  1  0
 15 16  1  0
 16 17  2  0
 17 18  1  0
 19 20  1  0
 20 21  1  0
 21 22  1  0
 21 34  1  0
 22 23  2  0
 22 33  1  0
 23 24  1  0
 24 25  2  0
 25 26  1  0
 25 32  1  0
 26 27  1  0
 26 30  1  0
 26 31  1  0
 27 28  2  0
 27 29  1  0
 30 31  1  0
 32 33  2  0
 34 35  1  0
  1 36  1  0
  1 37  1  0
  1 38  1  0
  2 39  1  0
  3 40  1  0
  3 41  1  0
  3 42  1  0
  5 43  1  0
  6 44  1  0
  7 45  1  0
  8 46  1  0
 13 47  1  0
 15 48  1  0
 16 49  1  0
 19 50  1  0
 19 51  1  0
 20 52  1  0
 20 53  1  0
 23 54  1  0
 24 55  1  0
 29 56  1  0
 30 57  1  0
 30 58  1  0
 31 59  1  0
 31 60  1  0
 32 61  1  0
 33 62  1  0
 34 63  1  0
 34 64  1  0
 35 65  1  0
 35 66  1  0
M  END
> <Name>
Molecule

> <AbsoluteEnergy>
53.2492

> <Clean Energy>
221.807

> <ConfNumber>
24

> <MOL_NUMBER>
3

> <RelativeEnergy>
8.06734

> <POSE_NUMBER>
26

> <LibDockScore>
122.5842

> <HotSpots>
-8.53,-31.32,51.19,A,51,6
-4.13,-31.12,56.59,A,79,15
1.27,-23.52,47.59,A,27,30

$$$$
Molecule
  SciTegic05072616053D

 66 70  0  0  0  0            999 V2000
   -3.8077  -21.6214   50.7627 C   0  0  0  1  0  0
   -4.9305  -22.5172   50.1928 C   0  0  0  1  0  0
   -6.1602  -21.6826   49.7835 C   0  0  0  1  0  0
   -4.4366  -23.3887   49.0554 C   0  0  0  1  0  0
   -4.1641  -22.7357   47.8295 C   0  0  0  1  0  0
   -3.7096  -23.4439   46.7128 C   0  0  0  1  0  0
   -3.5177  -24.8240   46.8002 C   0  0  0  1  0  0
   -3.7773  -25.4938   48.0065 C   0  0  0  1  0  0
   -4.2373  -24.8073   49.1614 C   0  0  0  1  0  0
   -4.4925  -25.5836   50.4663 C   0  0  0  1  0  0
   -3.3702  -25.3154   51.4870 C   0  0  0  1  0  0
   -3.6419  -24.7741   52.5293 O   0  0  0  1  0  0
   -2.0595  -25.6641   51.2221 N   0  0  0  1  0  0
   -0.8933  -25.1445   51.9733 C   0  0  0  1  0  0
   -0.8936  -24.1257   52.9185 C   0  0  0  1  0  0
    0.4409  -24.0142   53.2859 C   0  0  0  1  0  0
    1.1815  -24.9267   52.6000 N   0  0  0  1  0  0
    0.3751  -25.6084   51.8174 O   0  0  0  1  0  0
   -5.9187  -25.2345   50.9957 C   0  0  0  1  0  0
   -6.3445  -25.9451   52.2964 C   0  0  0  1  0  0
   -6.0928  -27.4185   52.2941 N   0  0  0  1  0  0
   -6.9584  -28.2635   52.9867 C   0  0  0  1  0  0
   -8.0658  -27.7125   53.6737 C   0  0  0  1  0  0
   -9.0107  -28.5392   54.3061 C   0  0  0  1  0  0
   -8.8745  -29.9364   54.2572 C   0  0  0  1  0  0
   -9.9503  -30.8412   54.8295 C   0  0  0  1  0  0
   -9.8067  -31.2019   56.3045 C   0  0  0  1  0  0
  -10.4712  -30.6108   57.1286 O   0  0  0  1  0  0
   -8.9809  -32.1839   56.6728 O   0  0  0  1  0  0
  -10.5009  -31.9370   53.9234 C   0  0  0  1  0  0
  -11.3572  -30.7432   54.2593 C   0  0  0  1  0  0
   -7.7313  -30.4895   53.6434 C   0  0  0  1  0  0
   -6.7843  -29.6628   53.0128 C   0  0  0  1  0  0
   -4.8866  -27.9280   51.5723 C   0  0  0  1  0  0
   -4.5477  -27.1349   50.2868 C   0  0  0  1  0  0
   -4.1930  -21.0892   51.6324 H   0  0
   -3.5193  -20.8962   50.0018 H   0  0
   -2.9472  -22.2272   51.0466 H   0  0
   -5.2445  -23.1904   50.9905 H   0  0
   -5.8547  -20.9570   49.0297 H   0  0
   -6.5284  -21.1499   50.6603 H   0  0
   -6.9413  -22.3295   49.3842 H   0  0
   -4.3116  -21.6583   47.7544 H   0  0
   -3.5061  -22.9209   45.7784 H   0  0
   -3.1663  -25.3815   45.9319 H   0  0
   -3.6213  -26.5714   48.0580 H   0  0
   -1.8754  -26.3528   50.4241 H   0  0
   -1.7427  -23.5491   53.2856 H   0  0
    0.8350  -23.3041   54.0128 H   0  0
   -5.9752  -24.1578   51.1559 H   0  0
   -6.6457  -25.4717   50.2190 H   0  0
   -5.8071  -25.4994   53.1334 H   0  0
   -7.4079  -25.7720   52.4615 H   0  0
   -8.1882  -26.6301   53.7132 H   0  0
   -9.8525  -28.0942   54.8366 H   0  0
   -8.0478  -31.9085   56.2780 H   0  0
  -10.7947  -32.8174   54.4950 H   0  0
  -10.0881  -31.8668   52.9170 H   0  0
  -11.4049  -30.0359   53.4314 H   0  0
  -12.1099  -30.9854   55.0095 H   0  0
   -7.5803  -31.5689   53.6580 H   0  0
   -5.9084  -30.1073   52.5402 H   0  0
   -5.0490  -28.9731   51.3086 H   0  0
   -4.0309  -27.8885   52.2464 H   0  0
   -3.5844  -27.4785   49.9098 H   0  0
   -5.2905  -27.3723   49.5252 H   0  0
  1  2  1  0
  2  3  1  0
  2  4  1  0
  4  5  2  0
  4  9  1  0
  5  6  1  0
  6  7  2  0
  7  8  1  0
  8  9  2  0
  9 10  1  0
 10 11  1  0
 10 19  1  0
 10 35  1  0
 11 12  2  0
 11 13  1  0
 13 14  1  0
 14 15  2  0
 14 18  1  0
 15 16  1  0
 16 17  2  0
 17 18  1  0
 19 20  1  0
 20 21  1  0
 21 22  1  0
 21 34  1  0
 22 23  2  0
 22 33  1  0
 23 24  1  0
 24 25  2  0
 25 26  1  0
 25 32  1  0
 26 27  1  0
 26 30  1  0
 26 31  1  0
 27 28  2  0
 27 29  1  0
 30 31  1  0
 32 33  2  0
 34 35  1  0
  1 36  1  0
  1 37  1  0
  1 38  1  0
  2 39  1  0
  3 40  1  0
  3 41  1  0
  3 42  1  0
  5 43  1  0
  6 44  1  0
  7 45  1  0
  8 46  1  0
 13 47  1  0
 15 48  1  0
 16 49  1  0
 19 50  1  0
 19 51  1  0
 20 52  1  0
 20 53  1  0
 23 54  1  0
 24 55  1  0
 29 56  1  0
 30 57  1  0
 30 58  1  0
 31 59  1  0
 31 60  1  0
 32 61  1  0
 33 62  1  0
 34 63  1  0
 34 64  1  0
 35 65  1  0
 35 66  1  0
M  END
> <Name>
Molecule

> <AbsoluteEnergy>
48.7171

> <Clean Energy>
221.807

> <ConfNumber>
7

> <MOL_NUMBER>
3

> <RelativeEnergy>
3.53523

> <POSE_NUMBER>
27

> <LibDockScore>
122.1672

> <HotSpots>
-3.33,-21.92,50.38,A,47,1
-4.53,-24.52,46.19,A,17,7
-6.33,-26.32,51.98,A,57,20

$$$$
Molecule
  SciTegic05072616053D

 66 70  0  0  0  0            999 V2000
   -0.2870  -23.2285   48.5454 C   0  0  0  1  0  0
   -0.2520  -24.6872   49.0448 C   0  0  0  1  0  0
    0.3471  -25.6209   47.9746 C   0  0  0  1  0  0
    0.4705  -24.7956   50.3693 C   0  0  0  1  0  0
    1.8668  -24.5748   50.3490 C   0  0  0  1  0  0
    2.6268  -24.6140   51.5229 C   0  0  0  1  0  0
    1.9973  -24.8613   52.7434 C   0  0  0  1  0  0
    0.6153  -25.0922   52.7863 C   0  0  0  1  0  0
   -0.1816  -25.0977   51.6108 C   0  0  0  1  0  0
   -1.6859  -25.4270   51.6915 C   0  0  0  1  0  0
   -2.5184  -24.2420   51.1624 C   0  0  0  1  0  0
   -1.9878  -23.1712   50.9510 O   0  0  0  1  0  0
   -3.8689  -24.3807   50.9156 N   0  0  0  1  0  0
   -4.7314  -23.2773   50.4541 C   0  0  0  1  0  0
   -6.0922  -23.3995   50.2176 C   0  0  0  1  0  0
   -6.4686  -22.1286   49.7931 C   0  0  0  1  0  0
   -5.3780  -21.3082   49.7872 N   0  0  0  1  0  0
   -4.3367  -22.0015   50.1912 O   0  0  0  1  0  0
   -2.1744  -25.6586   53.1649 C   0  0  0  1  0  0
   -3.5953  -26.2397   53.3157 C   0  0  0  1  0  0
   -3.8084  -27.4394   52.4535 N   0  0  0  1  0  0
   -5.0437  -28.0821   52.3852 C   0  0  0  1  0  0
   -6.2283  -27.4158   52.7748 C   0  0  0  1  0  0
   -7.4720  -28.0704   52.7310 C   0  0  0  1  0  0
   -7.5609  -29.4022   52.2891 C   0  0  0  1  0  0
   -8.9027  -30.1088   52.2652 C   0  0  0  1  0  0
   -9.4131  -30.4283   50.8595 C   0  0  0  1  0  0
   -9.0013  -31.4131   50.2857 O   0  0  0  1  0  0
  -10.3115  -29.6195   50.2929 O   0  0  0  1  0  0
   -9.2514  -31.0674   53.3971 C   0  0  0  1  0  0
   -9.9289  -29.7206   53.3196 C   0  0  0  1  0  0
   -6.3927  -30.0655   51.8724 C   0  0  0  1  0  0
   -5.1470  -29.4171   51.9241 C   0  0  0  1  0  0
   -2.6202  -27.9097   51.6830 C   0  0  0  1  0  0
   -1.9481  -26.7629   50.8936 C   0  0  0  1  0  0
   -0.8920  -23.1801   47.6400 H   0  0
    0.7294  -22.9109   48.3127 H   0  0
   -0.7124  -22.5796   49.3110 H   0  0
   -1.2775  -25.0135   49.2180 H   0  0
    1.3600  -25.2902   47.7451 H   0  0
   -0.2613  -25.5594   47.0723 H   0  0
    0.3659  -26.6476   48.3401 H   0  0
    2.3612  -24.3699   49.3994 H   0  0
    3.7041  -24.4524   51.4844 H   0  0
    2.5806  -24.8750   53.6641 H   0  0
    0.1385  -25.2727   53.7497 H   0  0
   -4.3147  -25.3415   51.0674 H   0  0
   -6.7195  -24.2830   50.3362 H   0  0
   -7.4788  -21.8339   49.5091 H   0  0
   -2.1310  -24.7096   53.6994 H   0  0
   -1.4727  -26.3283   53.6622 H   0  0
   -3.7588  -26.5170   54.3571 H   0  0
   -4.3248  -25.4755   53.0474 H   0  0
   -6.1768  -26.3811   53.1136 H   0  0
   -8.3732  -27.5418   53.0417 H   0  0
   -9.8669  -28.6684   50.3057 H   0  0
   -8.4739  -31.0835   54.1609 H   0  0
   -9.9067  -31.8681   53.0542 H   0  0
  -10.9463  -29.8034   52.9373 H   0  0
   -9.5130  -29.0186   54.0424 H   0  0
   -6.4541  -31.0904   51.5065 H   0  0
   -4.2498  -29.9479   51.6056 H   0  0
   -2.9315  -28.6875   50.9857 H   0  0
   -1.8950  -28.3398   52.3738 H   0  0
   -0.9975  -27.1258   50.5028 H   0  0
   -2.5681  -26.5324   50.0272 H   0  0
  1  2  1  0
  2  3  1  0
  2  4  1  0
  4  5  2  0
  4  9  1  0
  5  6  1  0
  6  7  2  0
  7  8  1  0
  8  9  2  0
  9 10  1  0
 10 11  1  0
 10 19  1  0
 10 35  1  0
 11 12  2  0
 11 13  1  0
 13 14  1  0
 14 15  2  0
 14 18  1  0
 15 16  1  0
 16 17  2  0
 17 18  1  0
 19 20  1  0
 20 21  1  0
 21 22  1  0
 21 34  1  0
 22 23  2  0
 22 33  1  0
 23 24  1  0
 24 25  2  0
 25 26  1  0
 25 32  1  0
 26 27  1  0
 26 30  1  0
 26 31  1  0
 27 28  2  0
 27 29  1  0
 30 31  1  0
 32 33  2  0
 34 35  1  0
  1 36  1  0
  1 37  1  0
  1 38  1  0
  2 39  1  0
  3 40  1  0
  3 41  1  0
  3 42  1  0
  5 43  1  0
  6 44  1  0
  7 45  1  0
  8 46  1  0
 13 47  1  0
 15 48  1  0
 16 49  1  0
 19 50  1  0
 19 51  1  0
 20 52  1  0
 20 53  1  0
 23 54  1  0
 24 55  1  0
 29 56  1  0
 30 57  1  0
 30 58  1  0
 31 59  1  0
 31 60  1  0
 32 61  1  0
 33 62  1  0
 34 63  1  0
 34 64  1  0
 35 65  1  0
 35 66  1  0
M  END
> <Name>
Molecule

> <AbsoluteEnergy>
51.2165

> <Clean Energy>
221.807

> <ConfNumber>
15

> <MOL_NUMBER>
3

> <RelativeEnergy>
6.03466

> <POSE_NUMBER>
28

> <LibDockScore>
121.9402

> <HotSpots>
-0.93,-23.32,46.98,A,25,1
1.67,-24.32,50.98,A,50,8
-6.53,-23.32,50.38,A,45,16

$$$$
Molecule
  SciTegic05072616053D

 66 70  0  0  0  0            999 V2000
    1.6613  -25.5463   47.3418 C   0  0  0  1  0  0
    0.3883  -24.8199   47.8386 C   0  0  0  1  0  0
    0.2259  -23.5158   47.0318 C   0  0  0  1  0  0
    0.3022  -24.5758   49.3385 C   0  0  0  1  0  0
    1.5264  -24.5880   50.0567 C   0  0  0  1  0  0
    1.5835  -24.3557   51.4315 C   0  0  0  1  0  0
    0.4108  -24.0877   52.1320 C   0  0  0  1  0  0
   -0.8110  -24.0620   51.4551 C   0  0  0  1  0  0
   -0.9246  -24.3225   50.0612 C   0  0  0  1  0  0
   -2.3578  -24.2712   49.4670 C   0  0  0  1  0  0
   -2.4220  -23.1849   48.3799 C   0  0  0  1  0  0
   -1.4826  -22.4441   48.1955 O   0  0  0  1  0  0
   -3.5528  -23.0421   47.5995 N   0  0  0  1  0  0
   -3.7027  -22.0803   46.4871 C   0  0  0  1  0  0
   -2.7512  -21.1964   45.9895 C   0  0  0  1  0  0
   -3.4176  -20.5401   44.9586 C   0  0  0  1  0  0
   -4.6904  -21.0153   44.8625 N   0  0  0  1  0  0
   -4.8572  -21.9391   45.7808 O   0  0  0  1  0  0
   -3.4365  -23.9260   50.5588 C   0  0  0  1  0  0
   -3.5378  -24.9863   51.6755 C   0  0  0  1  0  0
   -3.8599  -26.3230   51.0967 N   0  0  0  1  0  0
   -4.9192  -27.1091   51.5452 C   0  0  0  1  0  0
   -6.1727  -26.5323   51.8516 C   0  0  0  1  0  0
   -7.2434  -27.3303   52.2852 C   0  0  0  1  0  0
   -7.0847  -28.7203   52.4109 C   0  0  0  1  0  0
   -8.2476  -29.5762   52.8476 C   0  0  0  1  0  0
   -8.9107  -30.2869   51.6804 C   0  0  0  1  0  0
   -9.9011  -29.8035   51.1805 O   0  0  0  1  0  0
   -8.3800  -31.4246   51.2324 O   0  0  0  1  0  0
   -9.1200  -29.1089   54.0033 C   0  0  0  1  0  0
   -8.1979  -30.2899   54.1894 C   0  0  0  1  0  0
   -5.8409  -29.3050   52.1186 C   0  0  0  1  0  0
   -4.7659  -28.5074   51.6950 C   0  0  0  1  0  0
   -2.9778  -26.7470   49.9712 C   0  0  0  1  0  0
   -2.8999  -25.6263   48.9111 C   0  0  0  1  0  0
    2.5358  -24.9143   47.4967 H   0  0
    1.5646  -25.7862   46.2829 H   0  0
    1.7862  -26.4706   47.9058 H   0  0
   -0.4463  -25.4979   47.6602 H   0  0
    0.1210  -23.7440   45.9711 H   0  0
    1.0921  -22.8721   47.1849 H   0  0
   -0.6687  -22.9953   47.3737 H   0  0
    2.4524  -24.7853   49.5166 H   0  0
    2.5400  -24.3839   51.9534 H   0  0
    0.4457  -23.8986   53.2049 H   0  0
   -1.7153  -23.8327   52.0187 H   0  0
   -4.3856  -23.6776   47.8173 H   0  0
   -1.7250  -21.0516   46.3273 H   0  0
   -2.9868  -19.7646   44.3252 H   0  0
   -3.1902  -22.9638   51.0078 H   0  0
   -4.4095  -23.8274   50.0775 H   0  0
   -2.5878  -25.0432   52.2068 H   0  0
   -4.3211  -24.6996   52.3772 H   0  0
   -6.3097  -25.4557   51.7501 H   0  0
   -8.2016  -26.8694   52.5252 H   0  0
   -8.3484  -32.0600   52.0677 H   0  0
  -10.1557  -29.4235   53.8754 H   0  0
   -8.7188  -28.2081   54.4677 H   0  0
   -7.3060  -30.0187   54.7542 H   0  0
   -8.7422  -31.2338   54.1604 H   0  0
   -5.7101  -30.3823   52.2211 H   0  0
   -3.8030  -28.9705   51.4793 H   0  0
   -3.3818  -27.6500   49.5135 H   0  0
   -1.9780  -26.9539   50.3528 H   0  0
   -2.2556  -25.9574   48.0967 H   0  0
   -3.8951  -25.4646   48.4969 H   0  0
  1  2  1  0
  2  3  1  0
  2  4  1  0
  4  5  2  0
  4  9  1  0
  5  6  1  0
  6  7  2  0
  7  8  1  0
  8  9  2  0
  9 10  1  0
 10 11  1  0
 10 19  1  0
 10 35  1  0
 11 12  2  0
 11 13  1  0
 13 14  1  0
 14 15  2  0
 14 18  1  0
 15 16  1  0
 16 17  2  0
 17 18  1  0
 19 20  1  0
 20 21  1  0
 21 22  1  0
 21 34  1  0
 22 23  2  0
 22 33  1  0
 23 24  1  0
 24 25  2  0
 25 26  1  0
 25 32  1  0
 26 27  1  0
 26 30  1  0
 26 31  1  0
 27 28  2  0
 27 29  1  0
 30 31  1  0
 32 33  2  0
 34 35  1  0
  1 36  1  0
  1 37  1  0
  1 38  1  0
  2 39  1  0
  3 40  1  0
  3 41  1  0
  3 42  1  0
  5 43  1  0
  6 44  1  0
  7 45  1  0
  8 46  1  0
 13 47  1  0
 15 48  1  0
 16 49  1  0
 19 50  1  0
 19 51  1  0
 20 52  1  0
 20 53  1  0
 23 54  1  0
 24 55  1  0
 29 56  1  0
 30 57  1  0
 30 58  1  0
 31 59  1  0
 31 60  1  0
 32 61  1  0
 33 62  1  0
 34 63  1  0
 34 64  1  0
 35 65  1  0
 35 66  1  0
M  END
> <Name>
Molecule

> <AbsoluteEnergy>
55.6846

> <Clean Energy>
221.807

> <ConfNumber>
39

> <MOL_NUMBER>
3

> <RelativeEnergy>
10.5028

> <POSE_NUMBER>
29

> <LibDockScore>
121.6356

> <HotSpots>
-2.53,-21.12,45.98,A,16,15
-3.53,-20.52,45.19,A,12,16
-6.33,-26.32,51.98,A,57,23

$$$$
Molecule
  SciTegic05072616053D

 66 70  0  0  0  0            999 V2000
   -8.3228  -29.3462   55.6783 C   0  0  0  1  0  0
   -8.1675  -28.4097   54.4627 C   0  0  0  1  0  0
   -8.9932  -27.1224   54.6474 C   0  0  0  1  0  0
   -8.4953  -29.1051   53.1577 C   0  0  0  1  0  0
   -9.8502  -29.4680   52.9680 C   0  0  0  1  0  0
  -10.2689  -30.1282   51.8100 C   0  0  0  1  0  0
   -9.3397  -30.4404   50.8163 C   0  0  0  1  0  0
   -7.9899  -30.0895   50.9799 C   0  0  0  1  0  0
   -7.5256  -29.4149   52.1407 C   0  0  0  1  0  0
   -6.0249  -29.0653   52.2895 C   0  0  0  1  0  0
   -5.5162  -29.6324   53.6388 C   0  0  0  1  0  0
   -4.8598  -28.9231   54.3650 O   0  0  0  1  0  0
   -5.8439  -30.9266   54.0475 N   0  0  0  1  0  0
   -5.3474  -31.6232   55.2654 C   0  0  0  1  0  0
   -4.3300  -31.2151   56.1207 C   0  0  0  1  0  0
   -4.3285  -32.1746   57.1330 C   0  0  0  1  0  0
   -5.2916  -33.1056   56.8842 N   0  0  0  1  0  0
   -5.8874  -32.7843   55.7546 O   0  0  0  1  0  0
   -5.8652  -27.5128   52.1109 C   0  0  0  1  0  0
   -4.4265  -26.9438   52.0445 C   0  0  0  1  0  0
   -3.5607  -27.6210   51.0327 N   0  0  0  1  0  0
   -2.6872  -26.9202   50.1621 C   0  0  0  1  0  0
   -1.9017  -27.6182   49.2058 C   0  0  0  1  0  0
   -0.9794  -26.9480   48.3753 C   0  0  0  1  0  0
   -0.8049  -25.5565   48.4706 C   0  0  0  1  0  0
    0.2444  -24.8418   47.6209 C   0  0  0  1  0  0
    1.6470  -24.8260   48.2483 C   0  0  0  1  0  0
    2.5207  -24.1198   47.7761 O   0  0  0  1  0  0
    1.8601  -25.6049   49.3146 O   0  0  0  1  0  0
   -0.1793  -23.6352   46.7948 C   0  0  0  1  0  0
    0.1444  -24.9378   46.1045 C   0  0  0  1  0  0
   -1.6062  -24.8364   49.3737 C   0  0  0  1  0  0
   -2.5340  -25.5039   50.2023 C   0  0  0  1  0  0
   -3.6578  -29.1182   51.0829 C   0  0  0  1  0  0
   -5.1219  -29.6390   51.1427 C   0  0  0  1  0  0
   -9.3761  -29.6023   55.7927 H   0  0
   -7.9847  -28.8216   56.5719 H   0  0
   -7.7337  -30.2518   55.5336 H   0  0
   -7.1167  -28.1256   54.4055 H   0  0
   -8.6510  -26.6112   55.5472 H   0  0
  -10.0425  -27.3919   54.7680 H   0  0
   -8.8738  -26.4711   53.7816 H   0  0
  -10.5810  -29.2278   53.7402 H   0  0
  -11.3172  -30.3984   51.6831 H   0  0
   -9.6622  -30.9571   49.9124 H   0  0
   -7.2782  -30.3419   50.1939 H   0  0
   -6.5196  -31.4722   53.4226 H   0  0
   -3.6817  -30.3443   56.0225 H   0  0
   -3.6585  -32.1789   57.9927 H   0  0
   -6.3888  -27.0180   52.9289 H   0  0
   -6.3899  -27.2175   51.2023 H   0  0
   -3.9615  -27.0410   53.0255 H   0  0
   -4.4775  -25.8810   51.8079 H   0  0
   -2.0146  -28.6982   49.1116 H   0  0
   -0.3952  -27.5158   47.6511 H   0  0
    1.6158  -26.5790   49.0081 H   0  0
    0.6321  -22.9143   46.6948 H   0  0
   -1.2547  -23.4679   46.8550 H   0  0
   -0.7584  -25.4650   45.7959 H   0  0
    1.1288  -24.9120   45.6371 H   0  0
   -1.5102  -23.7524   49.4347 H   0  0
   -3.1481  -24.9219   50.8895 H   0  0
   -3.1710  -29.5330   50.2003 H   0  0
   -3.1188  -29.4784   51.9592 H   0  0
   -5.0964  -30.7248   51.2349 H   0  0
   -5.6008  -29.4265   50.1869 H   0  0
  1  2  1  0
  2  3  1  0
  2  4  1  0
  4  5  2  0
  4  9  1  0
  5  6  1  0
  6  7  2  0
  7  8  1  0
  8  9  2  0
  9 10  1  0
 10 11  1  0
 10 19  1  0
 10 35  1  0
 11 12  2  0
 11 13  1  0
 13 14  1  0
 14 15  2  0
 14 18  1  0
 15 16  1  0
 16 17  2  0
 17 18  1  0
 19 20  1  0
 20 21  1  0
 21 22  1  0
 21 34  1  0
 22 23  2  0
 22 33  1  0
 23 24  1  0
 24 25  2  0
 25 26  1  0
 25 32  1  0
 26 27  1  0
 26 30  1  0
 26 31  1  0
 27 28  2  0
 27 29  1  0
 30 31  1  0
 32 33  2  0
 34 35  1  0
  1 36  1  0
  1 37  1  0
  1 38  1  0
  2 39  1  0
  3 40  1  0
  3 41  1  0
  3 42  1  0
  5 43  1  0
  6 44  1  0
  7 45  1  0
  8 46  1  0
 13 47  1  0
 15 48  1  0
 16 49  1  0
 19 50  1  0
 19 51  1  0
 20 52  1  0
 20 53  1  0
 23 54  1  0
 24 55  1  0
 29 56  1  0
 30 57  1  0
 30 58  1  0
 31 59  1  0
 31 60  1  0
 32 61  1  0
 33 62  1  0
 34 63  1  0
 34 64  1  0
 35 65  1  0
 35 66  1  0
M  END
> <Name>
Molecule

> <AbsoluteEnergy>
53.2492

> <Clean Energy>
221.807

> <ConfNumber>
24

> <MOL_NUMBER>
3

> <RelativeEnergy>
8.06734

> <POSE_NUMBER>
30

> <LibDockScore>
121.5786

> <HotSpots>
-8.53,-31.32,51.19,A,51,7
-4.13,-31.12,56.59,A,79,15
0.27,-24.92,46.38,A,19,31

$$$$
Molecule
  SciTegic05072616053D

 66 70  0  0  0  0            999 V2000
   -4.2459  -22.1409   49.3221 C   0  0  0  1  0  0
   -4.5402  -23.6512   49.4392 C   0  0  0  1  0  0
   -6.0261  -23.8931   49.7854 C   0  0  0  1  0  0
   -4.1153  -24.4214   48.2083 C   0  0  0  1  0  0
   -4.8000  -24.0305   47.0325 C   0  0  0  1  0  0
   -4.5053  -24.5784   45.7827 C   0  0  0  1  0  0
   -3.5129  -25.5484   45.6759 C   0  0  0  1  0  0
   -2.8420  -25.9795   46.8266 C   0  0  0  1  0  0
   -3.1200  -25.4649   48.1252 C   0  0  0  1  0  0
   -2.2785  -26.1226   49.2494 C   0  0  0  1  0  0
   -0.7903  -25.8000   49.0055 C   0  0  0  1  0  0
   -0.0114  -26.7067   48.8184 O   0  0  0  1  0  0
   -0.3242  -24.4960   48.9870 N   0  0  0  1  0  0
    1.0908  -24.1256   49.2440 C   0  0  0  1  0  0
    2.0658  -24.9221   49.8403 C   0  0  0  1  0  0
    3.2004  -24.1196   49.8517 C   0  0  0  1  0  0
    2.9101  -22.9152   49.2869 N   0  0  0  1  0  0
    1.6451  -22.9189   48.9231 O   0  0  0  1  0  0
   -2.4407  -27.6863   49.1768 C   0  0  0  1  0  0
   -3.7535  -28.2240   49.7577 C   0  0  0  1  0  0
   -3.8615  -27.8388   51.1833 N   0  0  0  1  0  0
   -3.9994  -28.7680   52.2025 C   0  0  0  1  0  0
   -3.6491  -30.1148   51.9769 C   0  0  0  1  0  0
   -3.7429  -31.0597   53.0121 C   0  0  0  1  0  0
   -4.1936  -30.6723   54.2891 C   0  0  0  1  0  0
   -4.2523  -31.6793   55.4209 C   0  0  0  1  0  0
   -3.8256  -31.1059   56.7744 C   0  0  0  1  0  0
   -3.0413  -30.1836   56.8113 O   0  0  0  1  0  0
   -4.3279  -31.6381   57.8923 O   0  0  0  1  0  0
   -3.9228  -33.1372   55.1375 C   0  0  0  1  0  0
   -5.3531  -32.7296   55.3972 C   0  0  0  1  0  0
   -4.5746  -29.3382   54.5122 C   0  0  0  1  0  0
   -4.4772  -28.3901   53.4785 C   0  0  0  1  0  0
   -3.7786  -26.3861   51.4479 C   0  0  0  1  0  0
   -2.5342  -25.7605   50.7526 C   0  0  0  1  0  0
   -4.4816  -21.6594   50.2712 H   0  0
   -4.8756  -21.7168   48.5399 H   0  0
   -3.1955  -21.9824   49.0778 H   0  0
   -3.9355  -24.0372   50.2598 H   0  0
   -6.6475  -23.4609   49.0011 H   0  0
   -6.2535  -23.4035   50.7323 H   0  0
   -6.2221  -24.9623   49.8655 H   0  0
   -5.5836  -23.2764   47.1054 H   0  0
   -5.0485  -24.2489   44.8970 H   0  0
   -3.2598  -25.9696   44.7029 H   0  0
   -2.0717  -26.7439   46.7240 H   0  0
   -1.0217  -23.7125   48.7760 H   0  0
    1.9625  -25.9413   50.2127 H   0  0
    4.1723  -24.4095   50.2510 H   0  0
   -2.3678  -27.9978   48.1348 H   0  0
   -1.6095  -28.1505   49.7077 H   0  0
   -4.5939  -27.8049   49.2044 H   0  0
   -3.7706  -29.3106   49.6739 H   0  0
   -3.3027  -30.4254   50.9912 H   0  0
   -3.4657  -32.0974   52.8263 H   0  0
   -4.0846  -32.6583   57.8420 H   0  0
   -3.4790  -33.6233   56.0063 H   0  0
   -3.7389  -33.3062   54.0765 H   0  0
   -5.9316  -32.6820   54.4746 H   0  0
   -5.6713  -32.9975   56.4047 H   0  0
   -4.9474  -29.0370   55.4912 H   0  0
   -4.7720  -27.3569   53.6620 H   0  0
   -3.7108  -26.2193   52.5229 H   0  0
   -4.6804  -25.9011   51.0743 H   0  0
   -2.6087  -24.6762   50.8351 H   0  0
   -1.6495  -26.0386   51.3254 H   0  0
  1  2  1  0
  2  3  1  0
  2  4  1  0
  4  5  2  0
  4  9  1  0
  5  6  1  0
  6  7  2  0
  7  8  1  0
  8  9  2  0
  9 10  1  0
 10 11  1  0
 10 19  1  0
 10 35  1  0
 11 12  2  0
 11 13  1  0
 13 14  1  0
 14 15  2  0
 14 18  1  0
 15 16  1  0
 16 17  2  0
 17 18  1  0
 19 20  1  0
 20 21  1  0
 21 22  1  0
 21 34  1  0
 22 23  2  0
 22 33  1  0
 23 24  1  0
 24 25  2  0
 25 26  1  0
 25 32  1  0
 26 27  1  0
 26 30  1  0
 26 31  1  0
 27 28  2  0
 27 29  1  0
 30 31  1  0
 32 33  2  0
 34 35  1  0
  1 36  1  0
  1 37  1  0
  1 38  1  0
  2 39  1  0
  3 40  1  0
  3 41  1  0
  3 42  1  0
  5 43  1  0
  6 44  1  0
  7 45  1  0
  8 46  1  0
 13 47  1  0
 15 48  1  0
 16 49  1  0
 19 50  1  0
 19 51  1  0
 20 52  1  0
 20 53  1  0
 23 54  1  0
 24 55  1  0
 29 56  1  0
 30 57  1  0
 30 58  1  0
 31 59  1  0
 31 60  1  0
 32 61  1  0
 33 62  1  0
 34 63  1  0
 34 64  1  0
 35 65  1  0
 35 66  1  0
M  END
> <Name>
Molecule

> <AbsoluteEnergy>
61.5996

> <Clean Energy>
221.807

> <ConfNumber>
66

> <MOL_NUMBER>
3

> <RelativeEnergy>
16.4178

> <POSE_NUMBER>
31

> <LibDockScore>
121.324

> <HotSpots>
-4.93,-23.52,47.59,A,26,5
1.87,-25.32,48.38,A,30,15
-4.33,-31.92,57.78,P,73,29

$$$$
Molecule
  SciTegic05072616053D

 66 70  0  0  0  0            999 V2000
    0.0531  -24.8158   47.1527 C   0  0  0  1  0  0
   -0.5250  -24.1648   48.4241 C   0  0  0  1  0  0
   -0.9098  -22.6935   48.1681 C   0  0  0  1  0  0
    0.4095  -24.3163   49.6054 C   0  0  0  1  0  0
    1.6864  -23.7253   49.4610 C   0  0  0  1  0  0
    2.6564  -23.8286   50.4624 C   0  0  0  1  0  0
    2.3692  -24.5365   51.6306 C   0  0  0  1  0  0
    1.1096  -25.1241   51.7998 C   0  0  0  1  0  0
    0.0850  -25.0124   50.8197 C   0  0  0  1  0  0
   -1.2918  -25.6490   51.0957 C   0  0  0  1  0  0
   -1.2114  -26.9107   51.9905 C   0  0  0  1  0  0
   -1.3964  -28.0100   51.5185 O   0  0  0  1  0  0
   -0.9302  -26.8122   53.3402 N   0  0  0  1  0  0
   -1.2112  -27.9047   54.2936 C   0  0  0  1  0  0
   -0.8215  -27.9108   55.6249 C   0  0  0  1  0  0
   -1.3122  -29.1196   56.1077 C   0  0  0  1  0  0
   -1.9616  -29.7795   55.1064 N   0  0  0  1  0  0
   -1.8943  -29.0484   54.0155 O   0  0  0  1  0  0
   -2.2938  -24.6614   51.8148 C   0  0  0  1  0  0
   -3.7311  -24.6731   51.2502 C   0  0  0  1  0  0
   -4.1438  -26.0569   50.8891 N   0  0  0  1  0  0
   -5.2076  -26.7052   51.5113 C   0  0  0  1  0  0
   -5.2470  -28.1157   51.6086 C   0  0  0  1  0  0
   -6.3262  -28.7633   52.2301 C   0  0  0  1  0  0
   -7.3849  -28.0156   52.7732 C   0  0  0  1  0  0
   -8.5553  -28.7101   53.4376 C   0  0  0  1  0  0
   -9.3298  -29.6525   52.5050 C   0  0  0  1  0  0
   -9.3245  -29.4483   51.3121 O   0  0  0  1  0  0
  -10.0076  -30.6917   53.0004 O   0  0  0  1  0  0
   -9.3104  -27.9279   54.5025 C   0  0  0  1  0  0
   -8.4382  -29.0924   54.9055 C   0  0  0  1  0  0
   -7.3520  -26.6129   52.6927 C   0  0  0  1  0  0
   -6.2762  -25.9640   52.0652 C   0  0  0  1  0  0
   -3.3248  -26.7036   49.8210 C   0  0  0  1  0  0
   -1.9017  -26.1042   49.7253 C   0  0  0  1  0  0
    0.9360  -24.2570   46.8422 H   0  0
   -0.6953  -24.7673   46.3617 H   0  0
    0.3201  -25.8542   47.3490 H   0  0
   -1.4404  -24.6965   48.6838 H   0  0
   -1.6522  -22.6581   47.3708 H   0  0
   -0.0209  -22.1479   47.8513 H   0  0
   -1.3167  -22.2470   49.0754 H   0  0
    1.9194  -23.1769   48.5483 H   0  0
    3.6314  -23.3590   50.3317 H   0  0
    3.1248  -24.6318   52.4104 H   0  0
    0.9077  -25.6853   52.7122 H   0  0
   -0.4915  -25.9086   53.7090 H   0  0
   -0.2621  -27.1475   56.1658 H   0  0
   -1.1957  -29.4832   57.1286 H   0  0
   -1.8999  -23.6476   51.7428 H   0  0
   -2.3339  -24.9135   52.8745 H   0  0
   -3.7761  -24.0417   50.3628 H   0  0
   -4.4163  -24.2778   52.0001 H   0  0
   -4.4295  -28.7069   51.1960 H   0  0
   -6.3431  -29.8514   52.2918 H   0  0
  -10.6601  -30.2654   53.7040 H   0  0
  -10.3677  -28.1926   54.5188 H   0  0
   -8.8291  -26.9728   54.7130 H   0  0
   -7.4924  -28.7580   55.3318 H   0  0
   -9.0305  -29.9779   55.1361 H   0  0
   -8.1653  -26.0259   53.1193 H   0  0
   -6.2651  -24.8757   52.0045 H   0  0
   -3.8279  -26.5798   48.8620 H   0  0
   -3.2481  -27.7708   50.0291 H   0  0
   -1.2408  -26.8451   49.2754 H   0  0
   -1.9285  -25.2475   49.0519 H   0  0
  1  2  1  0
  2  3  1  0
  2  4  1  0
  4  5  2  0
  4  9  1  0
  5  6  1  0
  6  7  2  0
  7  8  1  0
  8  9  2  0
  9 10  1  0
 10 11  1  0
 10 19  1  0
 10 35  1  0
 11 12  2  0
 11 13  1  0
 13 14  1  0
 14 15  2  0
 14 18  1  0
 15 16  1  0
 16 17  2  0
 17 18  1  0
 19 20  1  0
 20 21  1  0
 21 22  1  0
 21 34  1  0
 22 23  2  0
 22 33  1  0
 23 24  1  0
 24 25  2  0
 25 26  1  0
 25 32  1  0
 26 27  1  0
 26 30  1  0
 26 31  1  0
 27 28  2  0
 27 29  1  0
 30 31  1  0
 32 33  2  0
 34 35  1  0
  1 36  1  0
  1 37  1  0
  1 38  1  0
  2 39  1  0
  3 40  1  0
  3 41  1  0
  3 42  1  0
  5 43  1  0
  6 44  1  0
  7 45  1  0
  8 46  1  0
 13 47  1  0
 15 48  1  0
 16 49  1  0
 19 50  1  0
 19 51  1  0
 20 52  1  0
 20 53  1  0
 23 54  1  0
 24 55  1  0
 29 56  1  0
 30 57  1  0
 30 58  1  0
 31 59  1  0
 31 60  1  0
 32 61  1  0
 33 62  1  0
 34 63  1  0
 34 64  1  0
 35 65  1  0
 35 66  1  0
M  END
> <Name>
Molecule

> <AbsoluteEnergy>
55.5555

> <Clean Energy>
221.807

> <ConfNumber>
36

> <MOL_NUMBER>
3

> <RelativeEnergy>
10.3736

> <POSE_NUMBER>
32

> <LibDockScore>
121.0084

> <HotSpots>
0.27,-22.52,46.78,A,23,6
-0.33,-25.52,53.19,A,64,15
-5.33,-24.12,49.78,A,36,20

$$$$
Molecule
  SciTegic05072616053D

 66 70  0  0  0  0            999 V2000
   -3.8685  -24.9428   47.5568 C   0  0  0  1  0  0
   -3.1628  -24.3322   48.7824 C   0  0  0  1  0  0
   -2.8865  -22.8301   48.5815 C   0  0  0  1  0  0
   -3.9291  -24.6065   50.0574 C   0  0  0  1  0  0
   -5.2392  -24.0806   50.1383 C   0  0  0  1  0  0
   -6.0223  -24.2493   51.2854 C   0  0  0  1  0  0
   -5.5043  -24.9438   52.3794 C   0  0  0  1  0  0
   -4.2102  -25.4772   52.3184 C   0  0  0  1  0  0
   -3.3999  -25.3552   51.1574 C   0  0  0  1  0  0
   -2.0069  -26.0171   51.1123 C   0  0  0  1  0  0
   -0.9310  -24.9533   50.8336 C   0  0  0  1  0  0
   -0.7461  -24.0616   51.6301 O   0  0  0  1  0  0
   -0.1758  -24.9955   49.6777 N   0  0  0  1  0  0
    1.1686  -24.3949   49.5294 C   0  0  0  1  0  0
    1.9649  -23.8357   50.5242 C   0  0  0  1  0  0
    3.1101  -23.4308   49.8448 C   0  0  0  1  0  0
    2.9872  -23.7350   48.5230 N   0  0  0  1  0  0
    1.8210  -24.3118   48.3376 O   0  0  0  1  0  0
   -1.5835  -26.7102   52.4545 C   0  0  0  1  0  0
   -2.2440  -28.0859   52.7516 C   0  0  0  1  0  0
   -3.3988  -28.3841   51.8461 N   0  0  0  1  0  0
   -4.6714  -28.6776   52.3445 C   0  0  0  1  0  0
   -4.8277  -29.4177   53.5410 C   0  0  0  1  0  0
   -6.0972  -29.6068   54.1118 C   0  0  0  1  0  0
   -7.2366  -29.0724   53.4863 C   0  0  0  1  0  0
   -8.5943  -29.1696   54.1413 C   0  0  0  1  0  0
   -8.8342  -28.0498   55.1542 C   0  0  0  1  0  0
   -9.5617  -27.1273   54.8559 O   0  0  0  1  0  0
   -8.2375  -28.1119   56.3445 O   0  0  0  1  0  0
   -9.7821  -29.6418   53.3171 C   0  0  0  1  0  0
   -9.2029  -30.5436   54.3813 C   0  0  0  1  0  0
   -7.1073  -28.4183   52.2523 C   0  0  0  1  0  0
   -5.8398  -28.2213   51.6881 C   0  0  0  1  0  0
   -3.0970  -28.2704   50.3824 C   0  0  0  1  0  0
   -2.0091  -27.2103   50.0970 C   0  0  0  1  0  0
   -3.2327  -24.8027   46.6826 H   0  0
   -4.8100  -24.4168   47.3986 H   0  0
   -4.0557  -26.0046   47.7167 H   0  0
   -2.1945  -24.8221   48.8849 H   0  0
   -3.8354  -22.3201   48.4155 H   0  0
   -2.2581  -22.7060   47.6995 H   0  0
   -2.3875  -22.4156   49.4575 H   0  0
   -5.6475  -23.5324   49.2893 H   0  0
   -7.0319  -23.8403   51.3244 H   0  0
   -6.1054  -25.0710   53.2797 H   0  0
   -3.8130  -26.0015   53.1876 H   0  0
   -0.5923  -25.4979   48.8297 H   0  0
    1.7435  -23.7377   51.5870 H   0  0
    3.9728  -22.9449   50.3006 H   0  0
   -0.5014  -26.8412   52.4499 H   0  0
   -1.8085  -26.0347   53.2798 H   0  0
   -1.4958  -28.8707   52.6403 H   0  0
   -2.5926  -28.0982   53.7843 H   0  0
   -3.9509  -29.8467   54.0261 H   0  0
   -6.1986  -30.1684   55.0405 H   0  0
   -7.2123  -28.1893   56.1312 H   0  0
   -9.4776  -29.9523   52.3176 H   0  0
  -10.7092  -29.1736   53.6476 H   0  0
   -9.8218  -30.5558   55.2785 H   0  0
   -8.5889  -31.3335   53.9487 H   0  0
   -7.9955  -28.0621   51.7305 H   0  0
   -5.7522  -27.7093   50.7299 H   0  0
   -2.7583  -29.2379   50.0118 H   0  0
   -4.0081  -27.9987   49.8494 H   0  0
   -2.1572  -26.8171   49.0912 H   0  0
   -1.0328  -27.6946   50.1186 H   0  0
  1  2  1  0
  2  3  1  0
  2  4  1  0
  4  5  2  0
  4  9  1  0
  5  6  1  0
  6  7  2  0
  7  8  1  0
  8  9  2  0
  9 10  1  0
 10 11  1  0
 10 19  1  0
 10 35  1  0
 11 12  2  0
 11 13  1  0
 13 14  1  0
 14 15  2  0
 14 18  1  0
 15 16  1  0
 16 17  2  0
 17 18  1  0
 19 20  1  0
 20 21  1  0
 21 22  1  0
 21 34  1  0
 22 23  2  0
 22 33  1  0
 23 24  1  0
 24 25  2  0
 25 26  1  0
 25 32  1  0
 26 27  1  0
 26 30  1  0
 26 31  1  0
 27 28  2  0
 27 29  1  0
 30 31  1  0
 32 33  2  0
 34 35  1  0
  1 36  1  0
  1 37  1  0
  1 38  1  0
  2 39  1  0
  3 40  1  0
  3 41  1  0
  3 42  1  0
  5 43  1  0
  6 44  1  0
  7 45  1  0
  8 46  1  0
 13 47  1  0
 15 48  1  0
 16 49  1  0
 19 50  1  0
 19 51  1  0
 20 52  1  0
 20 53  1  0
 23 54  1  0
 24 55  1  0
 29 56  1  0
 30 57  1  0
 30 58  1  0
 31 59  1  0
 31 60  1  0
 32 61  1  0
 33 62  1  0
 34 63  1  0
 34 64  1  0
 35 65  1  0
 35 66  1  0
M  END
> <Name>
Molecule

> <AbsoluteEnergy>
54.9894

> <Clean Energy>
221.807

> <ConfNumber>
31

> <MOL_NUMBER>
3

> <RelativeEnergy>
9.80749

> <POSE_NUMBER>
33

> <LibDockScore>
118.503

> <HotSpots>
-5.93,-24.72,51.19,A,53,6
2.67,-22.92,49.98,A,39,16
-6.53,-30.72,51.78,A,56,24

$$$$
Molecule
  SciTegic05072616053D

 66 70  0  0  0  0            999 V2000
   -6.3032  -23.2351   50.8363 C   0  0  0  1  0  0
   -4.8435  -23.1013   50.3406 C   0  0  0  1  0  0
   -4.4303  -21.6197   50.4435 C   0  0  0  1  0  0
   -4.5535  -23.7014   48.9676 C   0  0  0  1  0  0
   -5.4626  -23.3681   47.9294 C   0  0  0  1  0  0
   -5.3228  -23.8589   46.6310 C   0  0  0  1  0  0
   -4.2483  -24.6852   46.3213 C   0  0  0  1  0  0
   -3.3198  -25.0136   47.3111 C   0  0  0  1  0  0
   -3.4340  -24.5656   48.6577 C   0  0  0  1  0  0
   -2.3347  -25.0273   49.6584 C   0  0  0  1  0  0
   -1.0237  -24.2996   49.3139 C   0  0  0  1  0  0
   -0.9131  -23.7009   48.2670 O   0  0  0  1  0  0
    0.0424  -24.3055   50.1842 N   0  0  0  1  0  0
    1.4316  -24.0507   49.7626 C   0  0  0  1  0  0
    2.5177  -24.0397   50.6229 C   0  0  0  1  0  0
    3.5966  -23.7636   49.7899 C   0  0  0  1  0  0
    3.1562  -23.6222   48.5070 N   0  0  0  1  0  0
    1.8523  -23.7957   48.4941 O   0  0  0  1  0  0
   -2.7820  -24.7842   51.1520 C   0  0  0  1  0  0
   -2.2151  -25.6680   52.2893 C   0  0  0  1  0  0
   -2.1403  -27.0802   51.8627 N   0  0  0  1  0  0
   -2.8372  -28.1080   52.4876 C   0  0  0  1  0  0
   -3.0418  -28.1075   53.8856 C   0  0  0  1  0  0
   -3.8253  -29.1017   54.4940 C   0  0  0  1  0  0
   -4.4033  -30.1190   53.7145 C   0  0  0  1  0  0
   -5.3135  -31.1481   54.3385 C   0  0  0  1  0  0
   -6.7850  -30.7702   54.1961 C   0  0  0  1  0  0
   -7.4439  -30.5624   55.1895 O   0  0  0  1  0  0
   -7.3132  -30.6754   52.9729 O   0  0  0  1  0  0
   -4.8434  -31.9134   55.5669 C   0  0  0  1  0  0
   -4.9447  -32.6190   54.2353 C   0  0  0  1  0  0
   -4.1468  -30.1673   52.3348 C   0  0  0  1  0  0
   -3.3743  -29.1695   51.7258 C   0  0  0  1  0  0
   -1.3208  -27.2714   50.6500 C   0  0  0  1  0  0
   -2.0296  -26.5677   49.4875 C   0  0  0  1  0  0
   -6.9653  -22.6315   50.2155 H   0  0
   -6.3763  -22.9109   51.8744 H   0  0
   -6.6069  -24.2797   50.7682 H   0  0
   -4.2244  -23.7155   50.9945 H   0  0
   -4.4921  -21.2858   51.4792 H   0  0
   -5.0810  -21.0063   49.8203 H   0  0
   -3.4025  -21.5129   50.0966 H   0  0
   -6.2986  -22.7059   48.1545 H   0  0
   -6.0514  -23.5962   45.8641 H   0  0
   -4.1313  -25.0750   45.3101 H   0  0
   -2.4701  -25.6406   47.0409 H   0  0
   -0.1466  -24.5050   51.2183 H   0  0
    2.5248  -24.2080   51.6998 H   0  0
    4.6339  -23.6741   50.1126 H   0  0
   -2.5646  -23.7454   51.4005 H   0  0
   -3.8692  -24.8523   51.1910 H   0  0
   -1.2170  -25.3190   52.5541 H   0  0
   -2.8610  -25.5905   53.1639 H   0  0
   -2.5874  -27.3283   54.4976 H   0  0
   -3.9855  -29.0846   55.5720 H   0  0
   -7.1379  -31.6092   52.5259 H   0  0
   -5.6763  -32.1691   56.2219 H   0  0
   -3.8102  -31.6720   55.8167 H   0  0
   -3.9652  -32.7550   53.7769 H   0  0
   -5.8314  -33.2507   54.1813 H   0  0
   -4.5500  -30.9837   51.7356 H   0  0
   -3.1858  -29.2128   50.6531 H   0  0
   -1.2277  -28.3353   50.4320 H   0  0
   -0.3352  -26.8304   50.7990 H   0  0
   -1.4267  -26.7022   48.5894 H   0  0
   -2.9699  -27.0855   49.2980 H   0  0
  1  2  1  0
  2  3  1  0
  2  4  1  0
  4  5  2  0
  4  9  1  0
  5  6  1  0
  6  7  2  0
  7  8  1  0
  8  9  2  0
  9 10  1  0
 10 11  1  0
 10 19  1  0
 10 35  1  0
 11 12  2  0
 11 13  1  0
 13 14  1  0
 14 15  2  0
 14 18  1  0
 15 16  1  0
 16 17  2  0
 17 18  1  0
 19 20  1  0
 20 21  1  0
 21 22  1  0
 21 34  1  0
 22 23  2  0
 22 33  1  0
 23 24  1  0
 24 25  2  0
 25 26  1  0
 25 32  1  0
 26 27  1  0
 26 30  1  0
 26 31  1  0
 27 28  2  0
 27 29  1  0
 30 31  1  0
 32 33  2  0
 34 35  1  0
  1 36  1  0
  1 37  1  0
  1 38  1  0
  2 39  1  0
  3 40  1  0
  3 41  1  0
  3 42  1  0
  5 43  1  0
  6 44  1  0
  7 45  1  0
  8 46  1  0
 13 47  1  0
 15 48  1  0
 16 49  1  0
 19 50  1  0
 19 51  1  0
 20 52  1  0
 20 53  1  0
 23 54  1  0
 24 55  1  0
 29 56  1  0
 30 57  1  0
 30 58  1  0
 31 59  1  0
 31 60  1  0
 32 61  1  0
 33 62  1  0
 34 63  1  0
 34 64  1  0
 35 65  1  0
 35 66  1  0
M  END
> <Name>
Molecule

> <AbsoluteEnergy>
60.3522

> <Clean Energy>
221.807

> <ConfNumber>
61

> <MOL_NUMBER>
3

> <RelativeEnergy>
15.1704

> <POSE_NUMBER>
34

> <LibDockScore>
118.3318

> <HotSpots>
-4.93,-23.52,47.59,A,26,6
4.07,-23.72,49.78,A,37,16
-4.33,-32.92,55.19,A,75,30

$$$$
Molecule
  SciTegic05072616053D

 66 70  0  0  0  0            999 V2000
   -5.3149  -24.5946   46.5881 C   0  0  0  1  0  0
   -4.7549  -23.8061   47.7907 C   0  0  0  1  0  0
   -5.8543  -22.9458   48.4476 C   0  0  0  1  0  0
   -3.5400  -22.9803   47.4132 C   0  0  0  1  0  0
   -3.7031  -22.1353   46.2894 C   0  0  0  1  0  0
   -2.6804  -21.2866   45.8561 C   0  0  0  1  0  0
   -1.4686  -21.2602   46.5474 C   0  0  0  1  0  0
   -1.2773  -22.0932   47.6579 C   0  0  0  1  0  0
   -2.2795  -22.9979   48.1081 C   0  0  0  1  0  0
   -1.9780  -23.9265   49.3018 C   0  0  0  1  0  0
   -0.5028  -23.8645   49.7744 C   0  0  0  1  0  0
   -0.2422  -23.6226   50.9331 O   0  0  0  1  0  0
    0.5447  -24.0824   48.8978 N   0  0  0  1  0  0
    1.9546  -23.7848   49.2280 C   0  0  0  1  0  0
    3.0316  -24.1011   48.4131 C   0  0  0  1  0  0
    4.1335  -23.6214   49.1158 C   0  0  0  1  0  0
    3.7158  -23.0576   50.2852 N   0  0  0  1  0  0
    2.4051  -23.1610   50.3521 O   0  0  0  1  0  0
   -2.2529  -25.4342   48.9429 C   0  0  0  1  0  0
   -2.3172  -26.3687   50.1633 C   0  0  0  1  0  0
   -3.2899  -25.8412   51.1576 N   0  0  0  1  0  0
   -4.4380  -26.5335   51.5477 C   0  0  0  1  0  0
   -5.6060  -25.8405   51.9473 C   0  0  0  1  0  0
   -6.7692  -26.5390   52.3174 C   0  0  0  1  0  0
   -6.7954  -27.9444   52.2845 C   0  0  0  1  0  0
   -8.0589  -28.7013   52.6389 C   0  0  0  1  0  0
   -8.5390  -28.4865   54.0708 C   0  0  0  1  0  0
   -9.3500  -27.6196   54.3037 O   0  0  0  1  0  0
   -8.0743  -29.2654   55.0484 O   0  0  0  1  0  0
   -8.2621  -30.0880   52.0460 C   0  0  0  1  0  0
   -9.0993  -28.9355   51.5518 C   0  0  0  1  0  0
   -5.6345  -28.6434   51.9080 C   0  0  0  1  0  0
   -4.4693  -27.9473   51.5488 C   0  0  0  1  0  0
   -2.9316  -24.4925   51.6736 C   0  0  0  1  0  0
   -2.8584  -23.4697   50.5235 C   0  0  0  1  0  0
   -5.7103  -23.8888   45.8576 H   0  0
   -6.1229  -25.2388   46.9349 H   0  0
   -4.5282  -25.1973   46.1343 H   0  0
   -4.4178  -24.5321   48.5305 H   0  0
   -6.6592  -23.5995   48.7836 H   0  0
   -6.2465  -22.2496   47.7063 H   0  0
   -5.4451  -22.3950   49.2945 H   0  0
   -4.6494  -22.1467   45.7486 H   0  0
   -2.8285  -20.6497   44.9840 H   0  0
   -0.6709  -20.5917   46.2237 H   0  0
   -0.3297  -22.0467   48.1946 H   0  0
    0.3234  -24.4867   47.9321 H   0  0
    3.0183  -24.6072   47.4478 H   0  0
    5.1694  -23.6864   48.7830 H   0  0
   -1.4681  -25.7863   48.2734 H   0  0
   -3.1963  -25.5006   48.4009 H   0  0
   -1.3309  -26.4345   50.6227 H   0  0
   -2.6310  -27.3621   49.8427 H   0  0
   -5.6037  -24.7507   51.9684 H   0  0
   -7.6555  -25.9877   52.6315 H   0  0
   -7.0306  -29.1608   55.0001 H   0  0
   -8.8238  -30.7333   52.7214 H   0  0
   -7.4695  -30.3412   51.3419 H   0  0
   -8.7541  -28.5730   50.5835 H   0  0
  -10.1078  -28.9641   51.9643 H   0  0
   -5.6394  -29.7333   51.8950 H   0  0
   -3.5760  -28.5046   51.2667 H   0  0
   -3.6840  -24.1709   52.3937 H   0  0
   -1.9638  -24.5423   52.1726 H   0  0
   -2.4589  -22.5335   50.9135 H   0  0
   -3.8700  -23.2667   50.1720 H   0  0
  1  2  1  0
  2  3  1  0
  2  4  1  0
  4  5  2  0
  4  9  1  0
  5  6  1  0
  6  7  2  0
  7  8  1  0
  8  9  2  0
  9 10  1  0
 10 11  1  0
 10 19  1  0
 10 35  1  0
 11 12  2  0
 11 13  1  0
 13 14  1  0
 14 15  2  0
 14 18  1  0
 15 16  1  0
 16 17  2  0
 17 18  1  0
 19 20  1  0
 20 21  1  0
 21 22  1  0
 21 34  1  0
 22 23  2  0
 22 33  1  0
 23 24  1  0
 24 25  2  0
 25 26  1  0
 25 32  1  0
 26 27  1  0
 26 30  1  0
 26 31  1  0
 27 28  2  0
 27 29  1  0
 30 31  1  0
 32 33  2  0
 34 35  1  0
  1 36  1  0
  1 37  1  0
  1 38  1  0
  2 39  1  0
  3 40  1  0
  3 41  1  0
  3 42  1  0
  5 43  1  0
  6 44  1  0
  7 45  1  0
  8 46  1  0
 13 47  1  0
 15 48  1  0
 16 49  1  0
 19 50  1  0
 19 51  1  0
 20 52  1  0
 20 53  1  0
 23 54  1  0
 24 55  1  0
 29 56  1  0
 30 57  1  0
 30 58  1  0
 31 59  1  0
 31 60  1  0
 32 61  1  0
 33 62  1  0
 34 63  1  0
 34 64  1  0
 35 65  1  0
 35 66  1  0
M  END
> <Name>
Molecule

> <AbsoluteEnergy>
49.3599

> <Clean Energy>
221.807

> <ConfNumber>
10

> <MOL_NUMBER>
3

> <RelativeEnergy>
4.17803

> <POSE_NUMBER>
35

> <LibDockScore>
118.1726

> <HotSpots>
-5.53,-22.92,48.98,A,33,3
-3.53,-22.32,46.59,A,20,5
-6.53,-30.72,51.78,A,56,30

$$$$
Molecule
  SciTegic05072616053D

 66 70  0  0  0  0            999 V2000
   -2.8246  -27.1120   46.3883 C   0  0  0  1  0  0
   -2.4125  -25.6271   46.3984 C   0  0  0  1  0  0
   -3.5734  -24.6451   46.6190 C   0  0  0  1  0  0
   -1.0946  -25.3621   47.1174 C   0  0  0  1  0  0
   -0.1026  -24.7883   46.2810 C   0  0  0  1  0  0
    1.1737  -24.4714   46.7474 C   0  0  0  1  0  0
    1.4999  -24.7277   48.0751 C   0  0  0  1  0  0
    0.5497  -25.2983   48.9267 C   0  0  0  1  0  0
   -0.7659  -25.6322   48.4990 C   0  0  0  1  0  0
   -1.7197  -26.2511   49.5434 C   0  0  0  1  0  0
   -3.0892  -25.5604   49.5667 C   0  0  0  1  0  0
   -4.0954  -26.2290   49.5360 O   0  0  0  1  0  0
   -3.1953  -24.1863   49.6449 N   0  0  0  1  0  0
   -4.4755  -23.4724   49.8524 C   0  0  0  1  0  0
   -5.7101  -24.0336   50.1672 C   0  0  0  1  0  0
   -6.5551  -22.9361   50.2854 C   0  0  0  1  0  0
   -5.8549  -21.7931   50.0399 N   0  0  0  1  0  0
   -4.6051  -22.1187   49.7855 O   0  0  0  1  0  0
   -1.2278  -26.0899   51.0302 C   0  0  0  1  0  0
   -2.2004  -26.6598   52.0913 C   0  0  0  1  0  0
   -2.8897  -27.8831   51.5975 N   0  0  0  1  0  0
   -4.1769  -28.2410   51.9863 C   0  0  0  1  0  0
   -4.6095  -29.5838   51.9222 C   0  0  0  1  0  0
   -5.9224  -29.9319   52.2868 C   0  0  0  1  0  0
   -6.8262  -28.9404   52.7105 C   0  0  0  1  0  0
   -8.2469  -29.2985   53.0833 C   0  0  0  1  0  0
   -8.6107  -28.9042   54.5086 C   0  0  0  1  0  0
   -8.7033  -29.7616   55.3566 O   0  0  0  1  0  0
   -8.8259  -27.6192   54.7949 O   0  0  0  1  0  0
   -8.9028  -30.5288   52.4747 C   0  0  0  1  0  0
   -9.3257  -29.1537   52.0217 C   0  0  0  1  0  0
   -6.4006  -27.6034   52.7858 C   0  0  0  1  0  0
   -5.0877  -27.2594   52.4386 C   0  0  0  1  0  0
   -2.1128  -28.6578   50.5992 C   0  0  0  1  0  0
   -1.8323  -27.8038   49.3362 C   0  0  0  1  0  0
   -3.5659  -27.2364   45.5990 H   0  0
   -3.3055  -27.3206   47.3440 H   0  0
   -1.9687  -27.7679   46.2289 H   0  0
   -2.1454  -25.3733   45.3726 H   0  0
   -4.0392  -24.9036   47.5700 H   0  0
   -4.2996  -24.8195   45.8251 H   0  0
   -3.2329  -23.6096   46.6181 H   0  0
   -0.3460  -24.5880   45.2376 H   0  0
    1.9090  -24.0267   46.0769 H   0  0
    2.4939  -24.4842   48.4504 H   0  0
    0.8281  -25.4958   49.9619 H   0  0
   -2.3022  -23.6046   49.5502 H   0  0
   -5.9567  -25.0880   50.2919 H   0  0
   -7.6149  -22.9827   50.5360 H   0  0
   -1.0685  -25.0313   51.2353 H   0  0
   -0.2638  -26.5873   51.1368 H   0  0
   -1.6422  -26.9044   52.9950 H   0  0
   -2.9465  -25.9044   52.3379 H   0  0
   -3.9192  -30.3579   51.5869 H   0  0
   -6.2408  -30.9733   52.2410 H   0  0
   -9.5844  -27.3174   54.1346 H   0  0
   -9.6318  -30.9707   53.1539 H   0  0
   -8.2504  -31.0099   51.7460 H   0  0
   -8.9001  -28.9013   51.0505 H   0  0
  -10.2802  -28.8615   52.4594 H   0  0
   -7.0949  -26.8306   53.1158 H   0  0
   -4.7645  -26.2215   52.5183 H   0  0
   -2.6761  -29.5465   50.3144 H   0  0
   -1.1660  -28.9673   51.0417 H   0  0
   -0.9078  -28.1592   48.8811 H   0  0
   -2.6212  -27.9977   48.6095 H   0  0
  1  2  1  0
  2  3  1  0
  2  4  1  0
  4  5  2  0
  4  9  1  0
  5  6  1  0
  6  7  2  0
  7  8  1  0
  8  9  2  0
  9 10  1  0
 10 11  1  0
 10 19  1  0
 10 35  1  0
 11 12  2  0
 11 13  1  0
 13 14  1  0
 14 15  2  0
 14 18  1  0
 15 16  1  0
 16 17  2  0
 17 18  1  0
 19 20  1  0
 20 21  1  0
 21 22  1  0
 21 34  1  0
 22 23  2  0
 22 33  1  0
 23 24  1  0
 24 25  2  0
 25 26  1  0
 25 32  1  0
 26 27  1  0
 26 30  1  0
 26 31  1  0
 27 28  2  0
 27 29  1  0
 30 31  1  0
 32 33  2  0
 34 35  1  0
  1 36  1  0
  1 37  1  0
  1 38  1  0
  2 39  1  0
  3 40  1  0
  3 41  1  0
  3 42  1  0
  5 43  1  0
  6 44  1  0
  7 45  1  0
  8 46  1  0
 13 47  1  0
 15 48  1  0
 16 49  1  0
 19 50  1  0
 19 51  1  0
 20 52  1  0
 20 53  1  0
 23 54  1  0
 24 55  1  0
 29 56  1  0
 30 57  1  0
 30 58  1  0
 31 59  1  0
 31 60  1  0
 32 61  1  0
 33 62  1  0
 34 63  1  0
 34 64  1  0
 35 65  1  0
 35 66  1  0
M  END
> <Name>
Molecule

> <AbsoluteEnergy>
61.1802

> <Clean Energy>
221.807

> <ConfNumber>
64

> <MOL_NUMBER>
3

> <RelativeEnergy>
15.9984

> <POSE_NUMBER>
36

> <LibDockScore>
117.9715

> <HotSpots>
-2.93,-26.32,45.98,A,15,3
1.87,-24.92,46.78,A,22,6
-9.33,-29.92,51.19,A,52,30

$$$$
Molecule
  SciTegic05072616053D

 66 70  0  0  0  0            999 V2000
   -4.5088  -30.6921   55.5290 C   0  0  0  1  0  0
   -4.4255  -30.9134   54.0077 C   0  0  0  1  0  0
   -4.1171  -32.3963   53.6977 C   0  0  0  1  0  0
   -5.6534  -30.3613   53.3131 C   0  0  0  1  0  0
   -6.8886  -30.9614   53.6651 C   0  0  0  1  0  0
   -8.0998  -30.5583   53.0949 C   0  0  0  1  0  0
   -8.1117  -29.5255   52.1586 C   0  0  0  1  0  0
   -6.9126  -28.9020   51.8042 C   0  0  0  1  0  0
   -5.6608  -29.2838   52.3552 C   0  0  0  1  0  0
   -4.4817  -28.4371   51.8363 C   0  0  0  1  0  0
   -4.9972  -26.9828   51.8079 C   0  0  0  1  0  0
   -5.5463  -26.5421   52.7934 O   0  0  0  1  0  0
   -4.8583  -26.1751   50.6999 N   0  0  0  1  0  0
   -5.5185  -24.8716   50.4998 C   0  0  0  1  0  0
   -6.4541  -24.2443   51.3155 C   0  0  0  1  0  0
   -6.7298  -23.0573   50.6413 C   0  0  0  1  0  0
   -5.9837  -22.9950   49.5011 N   0  0  0  1  0  0
   -5.2615  -24.0896   49.4190 O   0  0  0  1  0  0
   -4.0457  -29.0290   50.4342 C   0  0  0  1  0  0
   -2.5647  -28.8228   50.0319 C   0  0  0  1  0  0
   -2.0441  -27.5426   50.5718 N   0  0  0  1  0  0
   -1.6427  -26.4742   49.7716 C   0  0  0  1  0  0
   -1.1677  -25.2763   50.3522 C   0  0  0  1  0  0
   -0.8912  -24.1534   49.5527 C   0  0  0  1  0  0
   -1.0784  -24.2172   48.1608 C   0  0  0  1  0  0
   -0.9247  -22.9852   47.2956 C   0  0  0  1  0  0
   -2.2789  -22.3358   46.9655 C   0  0  0  1  0  0
   -3.2965  -22.9695   47.1462 O   0  0  0  1  0  0
   -2.3339  -21.0936   46.4804 O   0  0  0  1  0  0
    0.3187  -22.1194   47.4563 C   0  0  0  1  0  0
    0.1558  -22.9800   46.2247 C   0  0  0  1  0  0
   -1.4456  -25.4348   47.5641 C   0  0  0  1  0  0
   -1.7332  -26.5504   48.3625 C   0  0  0  1  0  0
   -2.0770  -27.4438   52.0584 C   0  0  0  1  0  0
   -3.1592  -28.3764   52.6647 C   0  0  0  1  0  0
   -3.5572  -30.9682   55.9833 H   0  0
   -5.2988  -31.3212   55.9393 H   0  0
   -4.7264  -29.6450   55.7398 H   0  0
   -3.5906  -30.3473   53.5946 H   0  0
   -4.9082  -33.0206   54.1131 H   0  0
   -3.1666  -32.6676   54.1571 H   0  0
   -4.0597  -32.5452   52.6195 H   0  0
   -6.8942  -31.7627   54.4040 H   0  0
   -9.0301  -31.0491   53.3810 H   0  0
   -9.0505  -29.2064   51.7059 H   0  0
   -6.9391  -28.0910   51.0765 H   0  0
   -4.2165  -26.5236   49.9179 H   0  0
   -6.8721  -24.5976   52.2581 H   0  0
   -7.4340  -22.2947   50.9739 H   0  0
   -4.2573  -30.0983   50.4294 H   0  0
   -4.6758  -28.5892   49.6611 H   0  0
   -1.9672  -29.6466   50.4225 H   0  0
   -2.4836  -28.8132   48.9450 H   0  0
   -1.0143  -25.2226   51.4300 H   0  0
   -0.5315  -23.2328   50.0123 H   0  0
   -1.7295  -21.1219   45.6222 H   0  0
    1.0228  -22.5583   48.1633 H   0  0
    0.1052  -21.0714   47.2458 H   0  0
   -0.1422  -22.3895   45.3583 H   0  0
    0.7736  -23.8765   46.2760 H   0  0
   -1.5070  -25.5121   46.4786 H   0  0
   -2.0301  -27.4876   47.8917 H   0  0
   -1.1012  -27.7207   52.4574 H   0  0
   -2.2903  -26.4141   52.3452 H   0  0
   -3.3913  -28.0351   53.6735 H   0  0
   -2.7484  -29.3826   52.7477 H   0  0
  1  2  1  0
  2  3  1  0
  2  4  1  0
  4  5  2  0
  4  9  1  0
  5  6  1  0
  6  7  2  0
  7  8  1  0
  8  9  2  0
  9 10  1  0
 10 11  1  0
 10 19  1  0
 10 35  1  0
 11 12  2  0
 11 13  1  0
 13 14  1  0
 14 15  2  0
 14 18  1  0
 15 16  1  0
 16 17  2  0
 17 18  1  0
 19 20  1  0
 20 21  1  0
 21 22  1  0
 21 34  1  0
 22 23  2  0
 22 33  1  0
 23 24  1  0
 24 25  2  0
 25 26  1  0
 25 32  1  0
 26 27  1  0
 26 30  1  0
 26 31  1  0
 27 28  2  0
 27 29  1  0
 30 31  1  0
 32 33  2  0
 34 35  1  0
  1 36  1  0
  1 37  1  0
  1 38  1  0
  2 39  1  0
  3 40  1  0
  3 41  1  0
  3 42  1  0
  5 43  1  0
  6 44  1  0
  7 45  1  0
  8 46  1  0
 13 47  1  0
 15 48  1  0
 16 49  1  0
 19 50  1  0
 19 51  1  0
 20 52  1  0
 20 53  1  0
 23 54  1  0
 24 55  1  0
 29 56  1  0
 30 57  1  0
 30 58  1  0
 31 59  1  0
 31 60  1  0
 32 61  1  0
 33 62  1  0
 34 63  1  0
 34 64  1  0
 35 65  1  0
 35 66  1  0
M  END
> <Name>
Molecule

> <AbsoluteEnergy>
63.7651

> <Clean Energy>
221.807

> <ConfNumber>
74

> <MOL_NUMBER>
3

> <RelativeEnergy>
18.5832

> <POSE_NUMBER>
37

> <LibDockScore>
117.614

> <HotSpots>
-6.53,-30.72,51.78,A,56,7
-5.93,-24.72,51.19,A,53,15
0.27,-22.52,46.78,A,23,31

$$$$
Molecule
  SciTegic05072616053D

 66 70  0  0  0  0            999 V2000
   -4.2903  -30.7779   56.3113 C   0  0  0  1  0  0
   -4.1104  -30.5507   54.7972 C   0  0  0  1  0  0
   -3.8162  -31.8783   54.0690 C   0  0  0  1  0  0
   -3.0596  -29.4959   54.5041 C   0  0  0  1  0  0
   -1.8884  -29.5640   55.2927 C   0  0  0  1  0  0
   -0.8618  -28.6249   55.1604 C   0  0  0  1  0  0
   -0.9917  -27.5866   54.2375 C   0  0  0  1  0  0
   -2.1363  -27.5025   53.4354 C   0  0  0  1  0  0
   -3.1836  -28.4599   53.5119 C   0  0  0  1  0  0
   -4.3872  -28.3395   52.5613 C   0  0  0  1  0  0
   -4.1219  -27.4581   51.3156 C   0  0  0  1  0  0
   -4.7809  -26.4608   51.1230 O   0  0  0  1  0  0
   -3.1421  -27.7843   50.3953 N   0  0  0  1  0  0
   -2.8034  -26.9190   49.2471 C   0  0  0  1  0  0
   -1.9216  -27.2629   48.2328 C   0  0  0  1  0  0
   -1.9311  -26.1526   47.3936 C   0  0  0  1  0  0
   -2.7780  -25.2092   47.8972 N   0  0  0  1  0  0
   -3.3003  -25.6736   49.0116 O   0  0  0  1  0  0
   -5.5623  -27.6496   53.3463 C   0  0  0  1  0  0
   -6.9353  -27.7660   52.6608 C   0  0  0  1  0  0
   -7.2057  -29.1794   52.2934 N   0  0  0  1  0  0
   -8.2631  -29.9111   52.8229 C   0  0  0  1  0  0
   -8.8800  -29.5066   54.0280 C   0  0  0  1  0  0
   -9.9408  -30.2463   54.5751 C   0  0  0  1  0  0
  -10.4022  -31.4055   53.9288 C   0  0  0  1  0  0
  -11.5320  -32.2091   54.5270 C   0  0  0  1  0  0
  -11.2107  -33.6910   54.6185 C   0  0  0  1  0  0
  -10.8257  -34.1451   55.6718 O   0  0  0  1  0  0
  -11.3577  -34.4521   53.5354 O   0  0  0  1  0  0
  -12.9692  -31.8009   54.2418 C   0  0  0  1  0  0
  -12.3920  -31.5935   55.6200 C   0  0  0  1  0  0
   -9.8004  -31.8157   52.7268 C   0  0  0  1  0  0
   -8.7421  -31.0737   52.1766 C   0  0  0  1  0  0
   -6.2164  -29.7490   51.3418 C   0  0  0  1  0  0
   -4.8199  -29.7419   51.9885 C   0  0  0  1  0  0
   -3.3772  -31.2185   56.7117 H   0  0
   -5.1178  -31.4700   56.4671 H   0  0
   -4.4974  -29.8321   56.8120 H   0  0
   -5.0528  -30.1659   54.4075 H   0  0
   -4.6466  -32.5638   54.2384 H   0  0
   -2.9060  -32.3122   54.4830 H   0  0
   -3.6915  -31.7021   53.0006 H   0  0
   -1.7835  -30.3680   56.0212 H   0  0
    0.0352  -28.7032   55.7747 H   0  0
   -0.2024  -26.8411   54.1409 H   0  0
   -2.2269  -26.6765   52.7300 H   0  0
   -2.6069  -28.7023   50.5205 H   0  0
   -1.3541  -28.1866   48.1196 H   0  0
   -1.3515  -26.0524   46.4759 H   0  0
   -5.3259  -26.5937   53.4781 H   0  0
   -5.6289  -28.0926   54.3400 H   0  0
   -6.9448  -27.1512   51.7608 H   0  0
   -7.7107  -27.4154   53.3419 H   0  0
   -8.5285  -28.6102   54.5388 H   0  0
  -10.4079  -29.9201   55.5043 H   0  0
  -10.7592  -34.0003   52.8004 H   0  0
  -13.6317  -32.6658   54.2089 H   0  0
  -13.0154  -30.8679   53.6801 H   0  0
  -12.1310  -30.5496   55.7941 H   0  0
  -12.7458  -32.3481   56.3224 H   0  0
  -10.1561  -32.7127   52.2198 H   0  0
   -8.2854  -31.3977   51.2415 H   0  0
   -6.4969  -30.7731   51.0954 H   0  0
   -6.1979  -29.1484   50.4324 H   0  0
   -4.0881  -30.0602   51.2460 H   0  0
   -4.8042  -30.4736   52.7963 H   0  0
  1  2  1  0
  2  3  1  0
  2  4  1  0
  4  5  2  0
  4  9  1  0
  5  6  1  0
  6  7  2  0
  7  8  1  0
  8  9  2  0
  9 10  1  0
 10 11  1  0
 10 19  1  0
 10 35  1  0
 11 12  2  0
 11 13  1  0
 13 14  1  0
 14 15  2  0
 14 18  1  0
 15 16  1  0
 16 17  2  0
 17 18  1  0
 19 20  1  0
 20 21  1  0
 21 22  1  0
 21 34  1  0
 22 23  2  0
 22 33  1  0
 23 24  1  0
 24 25  2  0
 25 26  1  0
 25 32  1  0
 26 27  1  0
 26 30  1  0
 26 31  1  0
 27 28  2  0
 27 29  1  0
 30 31  1  0
 32 33  2  0
 34 35  1  0
  1 36  1  0
  1 37  1  0
  1 38  1  0
  2 39  1  0
  3 40  1  0
  3 41  1  0
  3 42  1  0
  5 43  1  0
  6 44  1  0
  7 45  1  0
  8 46  1  0
 13 47  1  0
 15 48  1  0
 16 49  1  0
 19 50  1  0
 19 51  1  0
 20 52  1  0
 20 53  1  0
 23 54  1  0
 24 55  1  0
 29 56  1  0
 30 57  1  0
 30 58  1  0
 31 59  1  0
 31 60  1  0
 32 61  1  0
 33 62  1  0
 34 63  1  0
 34 64  1  0
 35 65  1  0
 35 66  1  0
M  END
> <Name>
Molecule

> <AbsoluteEnergy>
48.8345

> <Clean Energy>
221.807

> <ConfNumber>
8

> <MOL_NUMBER>
3

> <RelativeEnergy>
3.65264

> <POSE_NUMBER>
38

> <LibDockScore>
117.3998

> <HotSpots>
-4.93,-23.52,47.59,A,26,16
-12.93,-31.72,54.98,A,73,30
-9.53,-30.12,52.78,A,62,33

$$$$
Molecule
  SciTegic05072616053D

 66 70  0  0  0  0            999 V2000
   -0.4501  -23.6618   46.2655 C   0  0  0  1  0  0
    0.1519  -24.8794   46.9914 C   0  0  0  1  0  0
    1.1521  -25.6314   46.0920 C   0  0  0  1  0  0
    0.7612  -24.4939   48.3212 C   0  0  0  1  0  0
    1.9631  -23.7511   48.2790 C   0  0  0  1  0  0
    2.6226  -23.3680   49.4514 C   0  0  0  1  0  0
    2.0872  -23.7168   50.6930 C   0  0  0  1  0  0
    0.8885  -24.4364   50.7585 C   0  0  0  1  0  0
    0.1905  -24.8375   49.5901 C   0  0  0  1  0  0
   -1.1262  -25.6129   49.7289 C   0  0  0  1  0  0
   -2.1508  -25.1997   48.6651 C   0  0  0  1  0  0
   -2.6546  -26.0373   47.9519 O   0  0  0  1  0  0
   -2.5195  -23.8784   48.5205 N   0  0  0  1  0  0
   -3.4212  -23.4383   47.4387 C   0  0  0  1  0  0
   -3.7113  -22.1182   47.1258 C   0  0  0  1  0  0
   -4.6170  -22.2225   46.0737 C   0  0  0  1  0  0
   -4.8378  -23.5379   45.7892 N   0  0  0  1  0  0
   -4.1160  -24.2652   46.6106 O   0  0  0  1  0  0
   -1.8569  -25.3599   51.0848 C   0  0  0  1  0  0
   -3.1651  -26.1530   51.2251 C   0  0  0  1  0  0
   -2.9261  -27.6177   51.0880 N   0  0  0  1  0  0
   -3.5140  -28.5087   51.9781 C   0  0  0  1  0  0
   -4.4728  -28.0392   52.9027 C   0  0  0  1  0  0
   -5.0181  -28.8984   53.8675 C   0  0  0  1  0  0
   -4.6151  -30.2440   53.9221 C   0  0  0  1  0  0
   -5.1183  -31.1443   55.0283 C   0  0  0  1  0  0
   -4.2035  -31.1197   56.2568 C   0  0  0  1  0  0
   -4.3252  -31.9723   57.1094 O   0  0  0  1  0  0
   -3.2870  -30.1512   56.3559 O   0  0  0  1  0  0
   -6.6174  -31.2927   55.2402 C   0  0  0  1  0  0
   -5.8256  -32.4386   54.6564 C   0  0  0  1  0  0
   -3.7182  -30.7402   52.9602 C   0  0  0  1  0  0
   -3.1685  -29.8796   51.9953 C   0  0  0  1  0  0
   -2.0495  -28.0628   49.9626 C   0  0  0  1  0  0
   -0.8245  -27.1443   49.7398 C   0  0  0  1  0  0
   -0.9580  -24.0082   45.3654 H   0  0
    0.3596  -22.9904   45.9798 H   0  0
   -1.1542  -23.1427   46.9157 H   0  0
   -0.6646  -25.5681   47.2087 H   0  0
    1.9499  -24.9453   45.8076 H   0  0
    0.6322  -25.9631   45.1932 H   0  0
    1.5676  -26.4889   46.6213 H   0  0
    2.3844  -23.4713   47.3134 H   0  0
    3.5509  -22.7994   49.3961 H   0  0
    2.6020  -23.4291   51.6097 H   0  0
    0.4795  -24.6961   51.7349 H   0  0
   -2.1417  -23.1536   49.2110 H   0  0
   -3.3222  -21.2136   47.5931 H   0  0
   -5.0790  -21.3816   45.5565 H   0  0
   -2.0778  -24.2964   51.1760 H   0  0
   -1.1898  -25.6322   51.9027 H   0  0
   -3.8658  -25.8312   50.4547 H   0  0
   -3.6041  -25.9518   52.2023 H   0  0
   -4.7924  -26.9977   52.8660 H   0  0
   -5.7557  -28.5222   54.5763 H   0  0
   -3.8271  -29.2530   56.2928 H   0  0
   -7.1841  -30.7639   54.4739 H   0  0
   -6.8576  -31.4632   56.2897 H   0  0
   -5.6449  -33.2198   55.3947 H   0  0
   -5.9700  -32.5197   53.5791 H   0  0
   -3.4483  -31.7962   52.9629 H   0  0
   -2.4710  -30.2714   51.2550 H   0  0
   -1.6998  -29.0748   50.1669 H   0  0
   -2.6389  -28.0938   49.0462 H   0  0
   -0.3575  -27.4134   48.7924 H   0  0
   -0.0914  -27.3496   50.5199 H   0  0
  1  2  1  0
  2  3  1  0
  2  4  1  0
  4  5  2  0
  4  9  1  0
  5  6  1  0
  6  7  2  0
  7  8  1  0
  8  9  2  0
  9 10  1  0
 10 11  1  0
 10 19  1  0
 10 35  1  0
 11 12  2  0
 11 13  1  0
 13 14  1  0
 14 15  2  0
 14 18  1  0
 15 16  1  0
 16 17  2  0
 17 18  1  0
 19 20  1  0
 20 21  1  0
 21 22  1  0
 21 34  1  0
 22 23  2  0
 22 33  1  0
 23 24  1  0
 24 25  2  0
 25 26  1  0
 25 32  1  0
 26 27  1  0
 26 30  1  0
 26 31  1  0
 27 28  2  0
 27 29  1  0
 30 31  1  0
 32 33  2  0
 34 35  1  0
  1 36  1  0
  1 37  1  0
  1 38  1  0
  2 39  1  0
  3 40  1  0
  3 41  1  0
  3 42  1  0
  5 43  1  0
  6 44  1  0
  7 45  1  0
  8 46  1  0
 13 47  1  0
 15 48  1  0
 16 49  1  0
 19 50  1  0
 19 51  1  0
 20 52  1  0
 20 53  1  0
 23 54  1  0
 24 55  1  0
 29 56  1  0
 30 57  1  0
 30 58  1  0
 31 59  1  0
 31 60  1  0
 32 61  1  0
 33 62  1  0
 34 63  1  0
 34 64  1  0
 35 65  1  0
 35 66  1  0
M  END
> <Name>
Molecule

> <AbsoluteEnergy>
47.7571

> <Clean Energy>
221.807

> <ConfNumber>
4

> <MOL_NUMBER>
3

> <RelativeEnergy>
2.57522

> <POSE_NUMBER>
39

> <LibDockScore>
116.4358

> <HotSpots>
2.67,-22.92,49.98,A,39,6
-4.33,-31.92,57.78,P,73,28
-4.33,-32.92,55.19,A,75,31

$$$$
Molecule
  SciTegic05072616053D

 66 70  0  0  0  0            999 V2000
   -1.3499  -21.7020   48.2654 C   0  0  0  1  0  0
   -2.4154  -22.6238   48.9002 C   0  0  0  1  0  0
   -3.2205  -21.8843   49.9871 C   0  0  0  1  0  0
   -3.3190  -23.2474   47.8554 C   0  0  0  1  0  0
   -3.9152  -22.3634   46.9246 C   0  0  0  1  0  0
   -4.7708  -22.8304   45.9221 C   0  0  0  1  0  0
   -5.0480  -24.1957   45.8301 C   0  0  0  1  0  0
   -4.4657  -25.0930   46.7394 C   0  0  0  1  0  0
   -3.5903  -24.6554   47.7685 C   0  0  0  1  0  0
   -2.9634  -25.6801   48.7316 C   0  0  0  1  0  0
   -1.4270  -25.5686   48.7194 C   0  0  0  1  0  0
   -0.8519  -25.2726   49.7368 O   0  0  0  1  0  0
   -0.7001  -25.7809   47.5634 N   0  0  0  1  0  0
    0.7147  -25.3797   47.3858 C   0  0  0  1  0  0
    1.5140  -24.7051   48.3010 C   0  0  0  1  0  0
    2.7232  -24.5525   47.6355 C   0  0  0  1  0  0
    2.6395  -25.1173   46.4004 N   0  0  0  1  0  0
    1.4332  -25.6191   46.2569 O   0  0  0  1  0  0
   -3.5944  -25.4998   50.1478 C   0  0  0  1  0  0
   -3.0867  -26.4663   51.2369 C   0  0  0  1  0  0
   -3.0609  -27.8995   50.8132 N   0  0  0  1  0  0
   -3.3008  -28.8980   51.7558 C   0  0  0  1  0  0
   -2.6379  -28.8484   53.0048 C   0  0  0  1  0  0
   -2.9224  -29.7850   54.0138 C   0  0  0  1  0  0
   -3.8836  -30.7866   53.7996 C   0  0  0  1  0  0
   -4.2875  -31.7267   54.9208 C   0  0  0  1  0  0
   -3.8016  -33.1669   54.7946 C   0  0  0  1  0  0
   -2.9844  -33.5901   55.5840 O   0  0  0  1  0  0
   -4.3021  -33.9578   53.8427 O   0  0  0  1  0  0
   -5.6729  -31.5389   55.5292 C   0  0  0  1  0  0
   -4.4496  -31.1553   56.3213 C   0  0  0  1  0  0
   -4.4895  -30.8908   52.5302 C   0  0  0  1  0  0
   -4.2034  -29.9557   51.5194 C   0  0  0  1  0  0
   -2.7372  -28.2087   49.3867 C   0  0  0  1  0  0
   -3.2887  -27.1680   48.3821 C   0  0  0  1  0  0
   -0.6745  -21.3577   49.0486 H   0  0
   -1.8512  -20.8402   47.8248 H   0  0
   -0.7908  -22.2404   47.5001 H   0  0
   -1.8867  -23.4432   49.3872 H   0  0
   -3.7083  -21.0212   49.5341 H   0  0
   -2.5315  -21.5387   50.7578 H   0  0
   -3.9665  -22.5484   50.4236 H   0  0
   -3.7029  -21.2963   46.9906 H   0  0
   -5.2193  -22.1318   45.2157 H   0  0
   -5.7165  -24.5649   45.0523 H   0  0
   -4.6919  -26.1558   46.6531 H   0  0
   -1.1902  -26.2657   46.7450 H   0  0
    1.2529  -24.3734   49.3059 H   0  0
    3.6049  -24.0560   48.0407 H   0  0
   -3.4127  -24.4780   50.4809 H   0  0
   -4.6754  -25.6117   50.0637 H   0  0
   -2.0795  -26.1695   51.5295 H   0  0
   -3.7234  -26.3729   52.1167 H   0  0
   -1.8951  -28.0719   53.1875 H   0  0
   -2.3949  -29.7338   54.9663 H   0  0
   -4.1258  -33.4395   52.9467 H   0  0
   -6.0918  -32.4864   55.8681 H   0  0
   -6.1752  -30.6649   55.1145 H   0  0
   -4.2992  -30.0758   56.3327 H   0  0
   -4.2149  -31.8970   57.0848 H   0  0
   -5.1867  -31.7045   52.3305 H   0  0
   -4.6832  -30.0492   50.5452 H   0  0
   -3.1443  -29.1886   49.1374 H   0  0
   -1.6543  -28.2652   49.2764 H   0  0
   -2.8871  -27.3916   47.3938 H   0  0
   -4.3707  -27.2837   48.3197 H   0  0
  1  2  1  0
  2  3  1  0
  2  4  1  0
  4  5  2  0
  4  9  1  0
  5  6  1  0
  6  7  2  0
  7  8  1  0
  8  9  2  0
  9 10  1  0
 10 11  1  0
 10 19  1  0
 10 35  1  0
 11 12  2  0
 11 13  1  0
 13 14  1  0
 14 15  2  0
 14 18  1  0
 15 16  1  0
 16 17  2  0
 17 18  1  0
 19 20  1  0
 20 21  1  0
 21 22  1  0
 21 34  1  0
 22 23  2  0
 22 33  1  0
 23 24  1  0
 24 25  2  0
 25 26  1  0
 25 32  1  0
 26 27  1  0
 26 30  1  0
 26 31  1  0
 27 28  2  0
 27 29  1  0
 30 31  1  0
 32 33  2  0
 34 35  1  0
  1 36  1  0
  1 37  1  0
  1 38  1  0
  2 39  1  0
  3 40  1  0
  3 41  1  0
  3 42  1  0
  5 43  1  0
  6 44  1  0
  7 45  1  0
  8 46  1  0
 13 47  1  0
 15 48  1  0
 16 49  1  0
 19 50  1  0
 19 51  1  0
 20 52  1  0
 20 53  1  0
 23 54  1  0
 24 55  1  0
 29 56  1  0
 30 57  1  0
 30 58  1  0
 31 59  1  0
 31 60  1  0
 32 61  1  0
 33 62  1  0
 34 63  1  0
 34 64  1  0
 35 65  1  0
 35 66  1  0
M  END
> <Name>
Molecule

> <AbsoluteEnergy>
48.7171

> <Clean Energy>
221.807

> <ConfNumber>
7

> <MOL_NUMBER>
3

> <RelativeEnergy>
3.53523

> <POSE_NUMBER>
40

> <LibDockScore>
116.3519

> <HotSpots>
-3.53,-22.32,46.59,A,20,5
1.87,-25.32,48.38,A,30,15
-3.33,-32.52,56.19,P,67,28

$$$$
Molecule
  SciTegic05072616053D

 66 70  0  0  0  0            999 V2000
   -0.4992  -26.1378   47.8368 C   0  0  0  1  0  0
   -1.2561  -25.2558   48.8505 C   0  0  0  1  0  0
   -1.8730  -24.0229   48.1647 C   0  0  0  1  0  0
   -0.3918  -24.8740   50.0314 C   0  0  0  1  0  0
    0.7811  -24.1410   49.7425 C   0  0  0  1  0  0
    1.6724  -23.7668   50.7528 C   0  0  0  1  0  0
    1.4044  -24.1198   52.0774 C   0  0  0  1  0  0
    0.2381  -24.8304   52.3906 C   0  0  0  1  0  0
   -0.6961  -25.2108   51.3916 C   0  0  0  1  0  0
   -1.9772  -25.9500   51.8006 C   0  0  0  1  0  0
   -3.1968  -25.3992   51.0466 C   0  0  0  1  0  0
   -3.9191  -26.1519   50.4316 O   0  0  0  1  0  0
   -3.4852  -24.0501   51.0685 N   0  0  0  1  0  0
   -4.7519  -23.5066   50.5423 C   0  0  0  1  0  0
   -5.0075  -22.1618   50.3209 C   0  0  0  1  0  0
   -6.3136  -22.1471   49.8412 C   0  0  0  1  0  0
   -6.7925  -23.4223   49.7862 N   0  0  0  1  0  0
   -5.8512  -24.2364   50.2080 O   0  0  0  1  0  0
   -1.7892  -27.4953   51.5835 C   0  0  0  1  0  0
   -2.6236  -28.4141   52.5134 C   0  0  0  1  0  0
   -3.8816  -27.7494   52.9508 N   0  0  0  1  0  0
   -5.1378  -28.2730   52.6656 C   0  0  0  1  0  0
   -5.2860  -29.6216   52.2710 C   0  0  0  1  0  0
   -6.5554  -30.1474   51.9758 C   0  0  0  1  0  0
   -7.6993  -29.3332   52.0693 C   0  0  0  1  0  0
   -9.0657  -29.8909   51.7480 C   0  0  0  1  0  0
   -9.8311  -30.3350   52.9858 C   0  0  0  1  0  0
  -10.1826  -31.4895   53.0766 O   0  0  0  1  0  0
  -10.1031  -29.4491   53.9426 O   0  0  0  1  0  0
   -9.2811  -30.6697   50.4592 C   0  0  0  1  0  0
   -9.8576  -29.2834   50.6007 C   0  0  0  1  0  0
   -7.5635  -27.9905   52.4646 C   0  0  0  1  0  0
   -6.2959  -27.4648   52.7568 C   0  0  0  1  0  0
   -3.6928  -26.4616   53.6833 C   0  0  0  1  0  0
   -2.3465  -25.7938   53.3153 C   0  0  0  1  0  0
    0.2902  -25.5437   47.3764 H   0  0
   -1.1970  -26.4614   47.0644 H   0  0
   -0.0691  -27.0051   48.3377 H   0  0
   -2.0764  -25.8524   49.2496 H   0  0
   -2.5614  -24.3608   47.3901 H   0  0
   -1.0743  -23.4431   47.7021 H   0  0
   -2.4037  -23.4108   48.8940 H   0  0
    0.9955  -23.8615   48.7110 H   0  0
    2.5721  -23.2023   50.5079 H   0  0
    2.1024  -23.8425   52.8673 H   0  0
    0.0429  -25.0983   53.4290 H   0  0
   -2.7653  -23.3747   51.4814 H   0  0
   -4.3414  -21.3147   50.4843 H   0  0
   -6.8682  -21.2539   49.5538 H   0  0
   -0.7348  -27.7391   51.7131 H   0  0
   -2.0379  -27.7331   50.5493 H   0  0
   -2.0311  -28.6703   53.3917 H   0  0
   -2.8712  -29.3329   51.9817 H   0  0
   -4.4065  -30.2609   52.1947 H   0  0
   -6.6543  -31.1899   51.6733 H   0  0
  -10.6244  -28.6786   53.4557 H   0  0
  -10.0453  -31.4376   50.5789 H   0  0
   -8.3846  -30.6717   49.8392 H   0  0
   -9.2695  -28.5453   50.0553 H   0  0
  -10.9295  -29.3111   50.7965 H   0  0
   -8.4461  -27.3559   52.5443 H   0  0
   -6.2020  -26.4214   53.0577 H   0  0
   -3.7164  -26.6520   54.7563 H   0  0
   -4.5090  -25.7840   53.4326 H   0  0
   -2.3998  -24.7331   53.5606 H   0  0
   -1.5554  -26.2366   53.9205 H   0  0
  1  2  1  0
  2  3  1  0
  2  4  1  0
  4  5  2  0
  4  9  1  0
  5  6  1  0
  6  7  2  0
  7  8  1  0
  8  9  2  0
  9 10  1  0
 10 11  1  0
 10 19  1  0
 10 35  1  0
 11 12  2  0
 11 13  1  0
 13 14  1  0
 14 15  2  0
 14 18  1  0
 15 16  1  0
 16 17  2  0
 17 18  1  0
 19 20  1  0
 20 21  1  0
 21 22  1  0
 21 34  1  0
 22 23  2  0
 22 33  1  0
 23 24  1  0
 24 25  2  0
 25 26  1  0
 25 32  1  0
 26 27  1  0
 26 30  1  0
 26 31  1  0
 27 28  2  0
 27 29  1  0
 30 31  1  0
 32 33  2  0
 34 35  1  0
  1 36  1  0
  1 37  1  0
  1 38  1  0
  2 39  1  0
  3 40  1  0
  3 41  1  0
  3 42  1  0
  5 43  1  0
  6 44  1  0
  7 45  1  0
  8 46  1  0
 13 47  1  0
 15 48  1  0
 16 49  1  0
 19 50  1  0
 19 51  1  0
 20 52  1  0
 20 53  1  0
 23 54  1  0
 24 55  1  0
 29 56  1  0
 30 57  1  0
 30 58  1  0
 31 59  1  0
 31 60  1  0
 32 61  1  0
 33 62  1  0
 34 63  1  0
 34 64  1  0
 35 65  1  0
 35 66  1  0
M  END
> <Name>
Molecule

> <AbsoluteEnergy>
47.9229

> <Clean Energy>
221.807

> <ConfNumber>
5

> <MOL_NUMBER>
3

> <RelativeEnergy>
2.74103

> <POSE_NUMBER>
41

> <LibDockScore>
115.9166

> <HotSpots>
1.67,-24.32,50.98,A,50,7
-6.13,-22.12,49.98,A,41,16
-9.33,-29.92,51.19,A,52,31

$$$$
Molecule
  SciTegic05072616053D

 66 70  0  0  0  0            999 V2000
   -1.4899  -23.4127   52.2818 C   0  0  0  1  0  0
   -0.2208  -24.2761   52.4123 C   0  0  0  1  0  0
    0.8102  -23.6261   53.3524 C   0  0  0  1  0  0
    0.3735  -24.6162   51.0624 C   0  0  0  1  0  0
    1.6393  -24.0647   50.7678 C   0  0  0  1  0  0
    2.2651  -24.3005   49.5389 C   0  0  0  1  0  0
    1.6312  -25.0948   48.5803 C   0  0  0  1  0  0
    0.3779  -25.6592   48.8524 C   0  0  0  1  0  0
   -0.2754  -25.4503   50.0949 C   0  0  0  1  0  0
   -1.6351  -26.1022   50.3832 C   0  0  0  1  0  0
   -2.7510  -25.0966   50.0277 C   0  0  0  1  0  0
   -2.5182  -24.2063   49.2402 O   0  0  0  1  0  0
   -4.0069  -25.1790   50.5964 N   0  0  0  1  0  0
   -5.1075  -24.2223   50.3537 C   0  0  0  1  0  0
   -5.0396  -22.9793   49.7316 C   0  0  0  1  0  0
   -6.3495  -22.5105   49.7854 C   0  0  0  1  0  0
   -7.1384  -23.4343   50.4034 N   0  0  0  1  0  0
   -6.3894  -24.4600   50.7411 O   0  0  0  1  0  0
   -1.6304  -26.5869   51.8869 C   0  0  0  1  0  0
   -2.0616  -28.0479   52.1185 C   0  0  0  1  0  0
   -3.3069  -28.3402   51.3599 N   0  0  0  1  0  0
   -4.4813  -28.7241   52.0014 C   0  0  0  1  0  0
   -5.7177  -28.7240   51.3156 C   0  0  0  1  0  0
   -6.9125  -29.0128   51.9931 C   0  0  0  1  0  0
   -6.8931  -29.3100   53.3670 C   0  0  0  1  0  0
   -8.1887  -29.5175   54.1108 C   0  0  0  1  0  0
   -8.5590  -28.2802   54.9151 C   0  0  0  1  0  0
   -8.5807  -28.3517   56.1219 O   0  0  0  1  0  0
   -8.8296  -27.1382   54.2836 O   0  0  0  1  0  0
   -8.5462  -30.8861   54.6717 C   0  0  0  1  0  0
   -9.2979  -30.3453   53.4801 C   0  0  0  1  0  0
   -5.6629  -29.3891   54.0429 C   0  0  0  1  0  0
   -4.4674  -29.1031   53.3643 C   0  0  0  1  0  0
   -3.2133  -28.1302   49.8829 C   0  0  0  1  0  0
   -1.9272  -27.3618   49.4956 C   0  0  0  1  0  0
   -1.2067  -22.4348   51.8923 H   0  0
   -1.9278  -23.2863   53.2719 H   0  0
   -2.2069  -23.8890   51.6131 H   0  0
   -0.5181  -25.2206   52.8680 H   0  0
    0.3536  -23.4980   54.3338 H   0  0
    1.0748  -22.6465   52.9543 H   0  0
    1.6998  -24.2510   53.4317 H   0  0
    2.1383  -23.4436   51.5116 H   0  0
    3.2429  -23.8664   49.3303 H   0  0
    2.1123  -25.2758   47.6191 H   0  0
   -0.1063  -26.2726   48.0926 H   0  0
   -4.1973  -25.9953   51.2615 H   0  0
   -4.1661  -22.4881   49.3029 H   0  0
   -6.6914  -21.5525   49.3937 H   0  0
   -0.6271  -26.4545   52.2917 H   0  0
   -2.2878  -25.9372   52.4647 H   0  0
   -1.2690  -28.7167   51.7830 H   0  0
   -2.2403  -28.2094   53.1816 H   0  0
   -5.7433  -28.4973   50.2497 H   0  0
   -7.8587  -29.0066   51.4521 H   0  0
   -9.6046  -27.3781   53.6170 H   0  0
   -9.1307  -30.8026   55.5879 H   0  0
   -7.8164  -31.6408   54.3786 H   0  0
   -8.9699  -30.8126   52.5516 H   0  0
  -10.2831  -29.9730   53.7608 H   0  0
   -5.6371  -29.6728   55.0950 H   0  0
   -3.5173  -29.1739   53.8939 H   0  0
   -3.2152  -29.0989   49.3832 H   0  0
   -4.0823  -27.5655   49.5453 H   0  0
   -2.0078  -27.0471   48.4551 H   0  0
   -1.0793  -28.0436   49.5620 H   0  0
  1  2  1  0
  2  3  1  0
  2  4  1  0
  4  5  2  0
  4  9  1  0
  5  6  1  0
  6  7  2  0
  7  8  1  0
  8  9  2  0
  9 10  1  0
 10 11  1  0
 10 19  1  0
 10 35  1  0
 11 12  2  0
 11 13  1  0
 13 14  1  0
 14 15  2  0
 14 18  1  0
 15 16  1  0
 16 17  2  0
 17 18  1  0
 19 20  1  0
 20 21  1  0
 21 22  1  0
 21 34  1  0
 22 23  2  0
 22 33  1  0
 23 24  1  0
 24 25  2  0
 25 26  1  0
 25 32  1  0
 26 27  1  0
 26 30  1  0
 26 31  1  0
 27 28  2  0
 27 29  1  0
 30 31  1  0
 32 33  2  0
 34 35  1  0
  1 36  1  0
  1 37  1  0
  1 38  1  0
  2 39  1  0
  3 40  1  0
  3 41  1  0
  3 42  1  0
  5 43  1  0
  6 44  1  0
  7 45  1  0
  8 46  1  0
 13 47  1  0
 15 48  1  0
 16 49  1  0
 19 50  1  0
 19 51  1  0
 20 52  1  0
 20 53  1  0
 23 54  1  0
 24 55  1  0
 29 56  1  0
 30 57  1  0
 30 58  1  0
 31 59  1  0
 31 60  1  0
 32 61  1  0
 33 62  1  0
 34 63  1  0
 34 64  1  0
 35 65  1  0
 35 66  1  0
M  END
> <Name>
Molecule

> <AbsoluteEnergy>
51.0759

> <Clean Energy>
221.807

> <ConfNumber>
14

> <MOL_NUMBER>
3

> <RelativeEnergy>
5.89403

> <POSE_NUMBER>
42

> <LibDockScore>
115.8041

> <HotSpots>
1.87,-25.32,48.38,A,30,7
-6.13,-22.12,49.98,A,41,16
-9.53,-30.12,52.78,A,62,31

$$$$
Molecule
  SciTegic05072616053D

 66 70  0  0  0  0            999 V2000
    1.1744  -26.6140   47.3074 C   0  0  0  1  0  0
    0.3457  -25.3905   47.7392 C   0  0  0  1  0  0
   -0.0049  -24.4908   46.5391 C   0  0  0  1  0  0
    1.0169  -24.6092   48.8466 C   0  0  0  1  0  0
    2.3204  -24.1298   48.5855 C   0  0  0  1  0  0
    3.0295  -23.3968   49.5433 C   0  0  0  1  0  0
    2.4448  -23.1291   50.7826 C   0  0  0  1  0  0
    1.1538  -23.5946   51.0631 C   0  0  0  1  0  0
    0.4068  -24.3400   50.1140 C   0  0  0  1  0  0
   -1.0068  -24.8251   50.4666 C   0  0  0  1  0  0
   -1.9511  -24.7073   49.2596 C   0  0  0  1  0  0
   -2.5803  -25.6728   48.8924 O   0  0  0  1  0  0
   -2.0886  -23.5045   48.5933 N   0  0  0  1  0  0
   -3.1125  -23.2284   47.5629 C   0  0  0  1  0  0
   -4.1950  -24.0268   47.2096 C   0  0  0  1  0  0
   -4.8258  -23.3027   46.2022 C   0  0  0  1  0  0
   -4.1455  -22.1436   45.9796 N   0  0  0  1  0  0
   -3.1178  -22.1028   46.7986 O   0  0  0  1  0  0
   -0.9320  -26.2961   51.0139 C   0  0  0  1  0  0
   -1.8316  -26.6298   52.2262 C   0  0  0  1  0  0
   -3.1616  -25.9506   52.1661 N   0  0  0  1  0  0
   -4.3679  -26.6327   52.3523 C   0  0  0  1  0  0
   -4.3884  -27.9830   52.7779 C   0  0  0  1  0  0
   -5.6021  -28.6737   52.9374 C   0  0  0  1  0  0
   -6.8223  -28.0253   52.6874 C   0  0  0  1  0  0
   -8.1279  -28.7667   52.8425 C   0  0  0  1  0  0
   -8.4951  -29.5676   51.6050 C   0  0  0  1  0  0
   -9.3261  -29.1252   50.8446 O   0  0  0  1  0  0
   -7.8908  -30.7341   51.3858 O   0  0  0  1  0  0
   -8.5233  -29.3223   54.2024 C   0  0  0  1  0  0
   -9.2528  -28.1263   53.6417 C   0  0  0  1  0  0
   -6.8208  -26.6799   52.2861 C   0  0  0  1  0  0
   -5.6087  -25.9911   52.1217 C   0  0  0  1  0  0
   -3.1248  -24.4794   51.9034 C   0  0  0  1  0  0
   -1.7003  -23.9801   51.5844 C   0  0  0  1  0  0
    2.0915  -26.2627   46.8346 H   0  0
    0.5974  -27.1847   46.5798 H   0  0
    1.4118  -27.2370   48.1697 H   0  0
   -0.5915  -25.7706   48.1458 H   0  0
   -0.5719  -25.0795   45.8180 H   0  0
    0.9222  -24.1574   46.0727 H   0  0
   -0.5908  -23.6315   46.8654 H   0  0
    2.7821  -24.3350   47.6197 H   0  0
    4.0342  -23.0362   49.3229 H   0  0
    2.9929  -22.5579   51.5318 H   0  0
    0.7113  -23.3788   52.0356 H   0  0
   -1.4065  -22.7180   48.8403 H   0  0
   -4.4821  -24.9931   47.6244 H   0  0
   -5.7259  -23.6150   45.6727 H   0  0
    0.1016  -26.5122   51.2844 H   0  0
   -1.1830  -26.9791   50.2023 H   0  0
   -1.3221  -26.3285   53.1415 H   0  0
   -1.9868  -27.7079   52.2673 H   0  0
   -3.4485  -28.4947   52.9850 H   0  0
   -5.5961  -29.7160   53.2562 H   0  0
   -8.0749  -31.3032   52.2488 H   0  0
   -7.8110  -29.0332   54.9751 H   0  0
   -9.1118  -30.2346   54.1053 H   0  0
  -10.2308  -28.4005   53.2463 H   0  0
   -8.9291  -27.1992   54.1147 H   0  0
   -7.7651  -26.1678   52.1013 H   0  0
   -5.6231  -24.9462   51.8117 H   0  0
   -3.4994  -23.9507   52.7799 H   0  0
   -3.7789  -24.2515   51.0618 H   0  0
   -1.7526  -22.9394   51.2645 H   0  0
   -1.0969  -24.0256   52.4910 H   0  0
  1  2  1  0
  2  3  1  0
  2  4  1  0
  4  5  2  0
  4  9  1  0
  5  6  1  0
  6  7  2  0
  7  8  1  0
  8  9  2  0
  9 10  1  0
 10 11  1  0
 10 19  1  0
 10 35  1  0
 11 12  2  0
 11 13  1  0
 13 14  1  0
 14 15  2  0
 14 18  1  0
 15 16  1  0
 16 17  2  0
 17 18  1  0
 19 20  1  0
 20 21  1  0
 21 22  1  0
 21 34  1  0
 22 23  2  0
 22 33  1  0
 23 24  1  0
 24 25  2  0
 25 26  1  0
 25 32  1  0
 26 27  1  0
 26 30  1  0
 26 31  1  0
 27 28  2  0
 27 29  1  0
 30 31  1  0
 32 33  2  0
 34 35  1  0
  1 36  1  0
  1 37  1  0
  1 38  1  0
  2 39  1  0
  3 40  1  0
  3 41  1  0
  3 42  1  0
  5 43  1  0
  6 44  1  0
  7 45  1  0
  8 46  1  0
 13 47  1  0
 15 48  1  0
 16 49  1  0
 19 50  1  0
 19 51  1  0
 20 52  1  0
 20 53  1  0
 23 54  1  0
 24 55  1  0
 29 56  1  0
 30 57  1  0
 30 58  1  0
 31 59  1  0
 31 60  1  0
 32 61  1  0
 33 62  1  0
 34 63  1  0
 34 64  1  0
 35 65  1  0
 35 66  1  0
M  END
> <Name>
Molecule

> <AbsoluteEnergy>
47.5628

> <Clean Energy>
221.807

> <ConfNumber>
2

> <MOL_NUMBER>
3

> <RelativeEnergy>
2.38089

> <POSE_NUMBER>
43

> <LibDockScore>
115.6549

> <HotSpots>
2.67,-23.92,48.98,A,32,7
-5.13,-22.92,46.19,A,18,16
-8.73,-28.12,54.38,A,70,31

$$$$
Molecule
  SciTegic05072616053D

 66 70  0  0  0  0            999 V2000
   -0.1802  -23.2063   48.5978 C   0  0  0  1  0  0
   -0.2387  -24.6676   49.0876 C   0  0  0  1  0  0
    0.3409  -25.6263   48.0289 C   0  0  0  1  0  0
    0.4373  -24.8222   50.4319 C   0  0  0  1  0  0
    1.8329  -24.5993   50.4685 C   0  0  0  1  0  0
    2.5514  -24.6794   51.6662 C   0  0  0  1  0  0
    1.8802  -24.9706   52.8544 C   0  0  0  1  0  0
    0.4981  -25.2043   52.8406 C   0  0  0  1  0  0
   -0.2571  -25.1689   51.6384 C   0  0  0  1  0  0
   -1.7626  -25.5024   51.6546 C   0  0  0  1  0  0
   -2.5832  -24.2771   51.2046 C   0  0  0  1  0  0
   -2.0418  -23.2003   51.0626 O   0  0  0  1  0  0
   -3.9352  -24.3857   50.9510 N   0  0  0  1  0  0
   -4.7689  -23.2655   50.4769 C   0  0  0  1  0  0
   -6.1268  -23.3627   50.2139 C   0  0  0  1  0  0
   -6.4723  -22.0838   49.7867 C   0  0  0  1  0  0
   -5.3673  -21.2831   49.8049 N   0  0  0  1  0  0
   -4.3465  -21.9961   50.2263 O   0  0  0  1  0  0
   -2.2870  -25.8543   53.0914 C   0  0  0  1  0  0
   -3.7105  -26.4447   53.1587 C   0  0  0  1  0  0
   -3.9009  -27.5689   52.1955 N   0  0  0  1  0  0
   -5.1334  -28.2027   52.0440 C   0  0  0  1  0  0
   -6.3368  -27.5270   52.3507 C   0  0  0  1  0  0
   -7.5795  -28.1726   52.2231 C   0  0  0  1  0  0
   -7.6478  -29.5047   51.7783 C   0  0  0  1  0  0
   -8.9901  -30.2015   51.6640 C   0  0  0  1  0  0
   -9.7457  -29.8889   50.3718 C   0  0  0  1  0  0
  -10.2367  -30.7952   49.7345 O   0  0  0  1  0  0
   -9.8585  -28.6196   49.9736 O   0  0  0  1  0  0
   -9.1592  -31.5825   52.2854 C   0  0  0  1  0  0
   -9.8066  -30.3835   52.9351 C   0  0  0  1  0  0
   -6.4589  -30.1773   51.4435 C   0  0  0  1  0  0
   -5.2148  -29.5380   51.5792 C   0  0  0  1  0  0
   -2.6935  -27.9751   51.4184 C   0  0  0  1  0  0
   -2.0035  -26.7678   50.7430 C   0  0  0  1  0  0
   -0.7544  -23.1202   47.6753 H   0  0
    0.8583  -22.9427   48.3975 H   0  0
   -0.5927  -22.5396   49.3551 H   0  0
   -1.2850  -24.9390   49.2282 H   0  0
    1.3766  -25.3495   47.8317 H   0  0
   -0.2362  -25.5270   47.1095 H   0  0
    0.2935  -26.6546   48.3874 H   0  0
    2.3598  -24.3602   49.5448 H   0  0
    3.6290  -24.5153   51.6712 H   0  0
    2.4310  -25.0164   53.7939 H   0  0
   -0.0117  -25.4194   53.7797 H   0  0
   -4.4044  -25.3346   51.1069 H   0  0
   -6.7719  -24.2352   50.3173 H   0  0
   -7.4714  -21.7702   49.4842 H   0  0
   -2.2579  -24.9527   53.7032 H   0  0
   -1.5970  -26.5633   53.5489 H   0  0
   -3.8992  -26.8069   54.1693 H   0  0
   -4.4341  -25.6604   52.9365 H   0  0
   -6.3009  -26.4920   52.6906 H   0  0
   -8.4959  -27.6368   52.4706 H   0  0
   -8.8716  -28.2673   49.9065 H   0  0
   -8.2609  -31.8933   52.8189 H   0  0
   -9.8837  -32.1820   51.7342 H   0  0
  -10.8768  -30.3448   52.7321 H   0  0
   -9.2538  -30.0552   53.8153 H   0  0
   -6.5028  -31.2025   51.0759 H   0  0
   -4.3019  -30.0761   51.3238 H   0  0
   -2.9866  -28.6925   50.6519 H   0  0
   -1.9850  -28.4613   52.0891 H   0  0
   -1.0431  -27.0981   50.3472 H   0  0
   -2.6022  -26.4661   49.8836 H   0  0
  1  2  1  0
  2  3  1  0
  2  4  1  0
  4  5  2  0
  4  9  1  0
  5  6  1  0
  6  7  2  0
  7  8  1  0
  8  9  2  0
  9 10  1  0
 10 11  1  0
 10 19  1  0
 10 35  1  0
 11 12  2  0
 11 13  1  0
 13 14  1  0
 14 15  2  0
 14 18  1  0
 15 16  1  0
 16 17  2  0
 17 18  1  0
 19 20  1  0
 20 21  1  0
 21 22  1  0
 21 34  1  0
 22 23  2  0
 22 33  1  0
 23 24  1  0
 24 25  2  0
 25 26  1  0
 25 32  1  0
 26 27  1  0
 26 30  1  0
 26 31  1  0
 27 28  2  0
 27 29  1  0
 30 31  1  0
 32 33  2  0
 34 35  1  0
  1 36  1  0
  1 37  1  0
  1 38  1  0
  2 39  1  0
  3 40  1  0
  3 41  1  0
  3 42  1  0
  5 43  1  0
  6 44  1  0
  7 45  1  0
  8 46  1  0
 13 47  1  0
 15 48  1  0
 16 49  1  0
 19 50  1  0
 19 51  1  0
 20 52  1  0
 20 53  1  0
 23 54  1  0
 24 55  1  0
 29 56  1  0
 30 57  1  0
 30 58  1  0
 31 59  1  0
 31 60  1  0
 32 61  1  0
 33 62  1  0
 34 63  1  0
 34 64  1  0
 35 65  1  0
 35 66  1  0
M  END
> <Name>
Molecule

> <AbsoluteEnergy>
51.2165

> <Clean Energy>
221.807

> <ConfNumber>
15

> <MOL_NUMBER>
3

> <RelativeEnergy>
6.03466

> <POSE_NUMBER>
44

> <LibDockScore>
115.4048

> <HotSpots>
1.67,-24.32,50.98,A,50,6
-7.33,-24.12,50.38,A,44,15
-6.53,-30.72,51.78,A,56,32

$$$$
Molecule
  SciTegic05072616053D

 66 70  0  0  0  0            999 V2000
   -1.7884  -21.7279   47.4655 C   0  0  0  1  0  0
   -2.4141  -22.8202   48.3540 C   0  0  0  1  0  0
   -3.5052  -22.2384   49.2726 C   0  0  0  1  0  0
   -2.9150  -23.9826   47.5265 C   0  0  0  1  0  0
   -3.8673  -23.6911   46.5244 C   0  0  0  1  0  0
   -4.3267  -24.6824   45.6501 C   0  0  0  1  0  0
   -3.8234  -25.9801   45.7511 C   0  0  0  1  0  0
   -2.8998  -26.2964   46.7565 C   0  0  0  1  0  0
   -2.4738  -25.3342   47.7073 C   0  0  0  1  0  0
   -1.5820  -25.7471   48.8919 C   0  0  0  1  0  0
   -0.1596  -25.1792   48.7350 C   0  0  0  1  0  0
    0.2633  -24.8456   47.6490 O   0  0  0  1  0  0
    0.6439  -25.0353   49.8471 N   0  0  0  1  0  0
    1.9618  -24.3671   49.8303 C   0  0  0  1  0  0
    2.8694  -24.4113   50.8790 C   0  0  0  1  0  0
    3.9417  -23.6504   50.4228 C   0  0  0  1  0  0
    3.6716  -23.1878   49.1685 N   0  0  0  1  0  0
    2.4791  -23.6196   48.8149 O   0  0  0  1  0  0
   -1.3987  -27.3004   49.0252 C   0  0  0  1  0  0
   -2.6574  -28.0453   49.5297 C   0  0  0  1  0  0
   -3.1532  -27.5015   50.8280 N   0  0  0  1  0  0
   -4.2499  -28.0626   51.4916 C   0  0  0  1  0  0
   -4.5820  -29.4286   51.3127 C   0  0  0  1  0  0
   -5.7233  -29.9819   51.9172 C   0  0  0  1  0  0
   -6.5597  -29.1837   52.7144 C   0  0  0  1  0  0
   -7.8277  -29.7653   53.3023 C   0  0  0  1  0  0
   -8.9152  -30.0556   52.2637 C   0  0  0  1  0  0
   -9.0548  -29.3281   51.3058 O   0  0  0  1  0  0
   -9.7002  -31.1195   52.4310 O   0  0  0  1  0  0
   -7.7138  -30.7150   54.4846 C   0  0  0  1  0  0
   -8.2584  -29.3220   54.6934 C   0  0  0  1  0  0
   -6.2133  -27.8415   52.9477 C   0  0  0  1  0  0
   -5.0673  -27.2912   52.3521 C   0  0  0  1  0  0
   -2.4179  -26.3058   51.3371 C   0  0  0  1  0  0
   -2.2681  -25.2531   50.2238 C   0  0  0  1  0  0
   -1.3540  -20.9617   48.1076 H   0  0
   -2.5745  -21.2786   46.8586 H   0  0
   -1.0195  -22.1567   46.8229 H   0  0
   -1.6326  -23.2124   49.0048 H   0  0
   -4.2788  -21.7853   48.6526 H   0  0
   -3.0583  -21.4685   49.9016 H   0  0
   -3.9364  -23.0239   49.8932 H   0  0
   -4.2512  -22.6753   46.4306 H   0  0
   -5.0740  -24.4422   44.8939 H   0  0
   -4.1485  -26.7473   45.0483 H   0  0
   -2.4983  -27.3084   46.8091 H   0  0
    0.2920  -25.4310   50.7769 H   0  0
    2.7666  -24.9224   51.8362 H   0  0
    4.8566  -23.4543   50.9819 H   0  0
   -1.1177  -27.7060   48.0533 H   0  0
   -0.5752  -27.5007   49.7106 H   0  0
   -3.4469  -27.9578   48.7833 H   0  0
   -2.4217  -29.1022   49.6544 H   0  0
   -3.9420  -30.0600   50.6964 H   0  0
   -5.9605  -31.0351   51.7668 H   0  0
  -10.1338  -30.9931   53.3789 H   0  0
   -6.6841  -30.8004   54.8317 H   0  0
   -8.5088  -31.4607   54.4762 H   0  0
   -9.3435  -29.3256   54.7962 H   0  0
   -7.5183  -28.6649   55.1501 H   0  0
   -6.8376  -27.2249   53.5943 H   0  0
   -4.8028  -26.2535   52.5555 H   0  0
   -2.9684  -25.8719   52.1718 H   0  0
   -1.4293  -26.6087   51.6820 H   0  0
   -1.6952  -24.4139   50.6182 H   0  0
   -3.2575  -24.8649   49.9819 H   0  0
  1  2  1  0
  2  3  1  0
  2  4  1  0
  4  5  2  0
  4  9  1  0
  5  6  1  0
  6  7  2  0
  7  8  1  0
  8  9  2  0
  9 10  1  0
 10 11  1  0
 10 19  1  0
 10 35  1  0
 11 12  2  0
 11 13  1  0
 13 14  1  0
 14 15  2  0
 14 18  1  0
 15 16  1  0
 16 17  2  0
 17 18  1  0
 19 20  1  0
 20 21  1  0
 21 22  1  0
 21 34  1  0
 22 23  2  0
 22 33  1  0
 23 24  1  0
 24 25  2  0
 25 26  1  0
 25 32  1  0
 26 27  1  0
 26 30  1  0
 26 31  1  0
 27 28  2  0
 27 29  1  0
 30 31  1  0
 32 33  2  0
 34 35  1  0
  1 36  1  0
  1 37  1  0
  1 38  1  0
  2 39  1  0
  3 40  1  0
  3 41  1  0
  3 42  1  0
  5 43  1  0
  6 44  1  0
  7 45  1  0
  8 46  1  0
 13 47  1  0
 15 48  1  0
 16 49  1  0
 19 50  1  0
 19 51  1  0
 20 52  1  0
 20 53  1  0
 23 54  1  0
 24 55  1  0
 29 56  1  0
 30 57  1  0
 30 58  1  0
 31 59  1  0
 31 60  1  0
 32 61  1  0
 33 62  1  0
 34 63  1  0
 34 64  1  0
 35 65  1  0
 35 66  1  0
M  END
> <Name>
Molecule

> <AbsoluteEnergy>
51.3383

> <Clean Energy>
221.807

> <ConfNumber>
16

> <MOL_NUMBER>
3

> <RelativeEnergy>
6.15641

> <POSE_NUMBER>
45

> <LibDockScore>
115.3429

> <HotSpots>
-3.33,-21.92,50.38,A,47,3
3.07,-24.52,50.38,A,43,15
4.07,-23.72,49.78,A,37,16

$$$$
Molecule
  SciTegic05072616053D

 66 70  0  0  0  0            999 V2000
   -4.3041  -24.8617   47.2283 C   0  0  0  1  0  0
   -3.2724  -24.7440   48.3694 C   0  0  0  1  0  0
   -2.4353  -23.4542   48.2502 C   0  0  0  1  0  0
   -3.9169  -24.8731   49.7319 C   0  0  0  1  0  0
   -5.0029  -24.0081   49.9969 C   0  0  0  1  0  0
   -5.6756  -24.0382   51.2239 C   0  0  0  1  0  0
   -5.2699  -24.9358   52.2120 C   0  0  0  1  0  0
   -4.1932  -25.7972   51.9731 C   0  0  0  1  0  0
   -3.4924  -25.8022   50.7378 C   0  0  0  1  0  0
   -2.3269  -26.7860   50.5253 C   0  0  0  1  0  0
   -1.0756  -26.0575   50.0211 C   0  0  0  1  0  0
   -0.6899  -26.2261   48.8857 O   0  0  0  1  0  0
   -0.3852  -25.2091   50.8607 N   0  0  0  1  0  0
    0.9580  -24.6855   50.5412 C   0  0  0  1  0  0
    1.7752  -24.0151   51.4400 C   0  0  0  1  0  0
    2.9152  -23.7213   50.6969 C   0  0  0  1  0  0
    2.7647  -24.1993   49.4290 N   0  0  0  1  0  0
    1.5867  -24.7784   49.3383 O   0  0  0  1  0  0
   -2.7752  -27.9292   49.5567 C   0  0  0  1  0  0
   -4.0000  -28.7200   50.0735 C   0  0  0  1  0  0
   -3.9562  -28.9048   51.5562 N   0  0  0  1  0  0
   -5.1210  -29.0535   52.3118 C   0  0  0  1  0  0
   -6.3693  -28.6347   51.7948 C   0  0  0  1  0  0
   -7.5374  -28.7243   52.5688 C   0  0  0  1  0  0
   -7.4807  -29.2390   53.8747 C   0  0  0  1  0  0
   -8.7235  -29.2887   54.7291 C   0  0  0  1  0  0
   -8.7955  -28.1150   55.6942 C   0  0  0  1  0  0
   -9.5356  -27.1906   55.4425 O   0  0  0  1  0  0
   -8.0384  -28.1195   56.7913 O   0  0  0  1  0  0
  -10.0150  -29.8434   54.1495 C   0  0  0  1  0  0
   -9.2626  -30.6318   55.1926 C   0  0  0  1  0  0
   -6.2560  -29.6968   54.3876 C   0  0  0  1  0  0
   -5.0880  -29.6051   53.6148 C   0  0  0  1  0  0
   -2.5886  -28.8640   52.1478 C   0  0  0  1  0  0
   -1.8491  -27.5389   51.8249 C   0  0  0  1  0  0
   -3.7709  -24.8592   46.2776 H   0  0
   -4.9630  -23.9942   47.2662 H   0  0
   -4.8842  -25.7788   47.3313 H   0  0
   -2.5854  -25.5838   48.2651 H   0  0
   -3.1106  -22.5991   48.2791 H   0  0
   -1.9185  -23.4641   47.2905 H   0  0
   -1.7138  -23.3908   49.0647 H   0  0
   -5.3231  -23.3030   49.2298 H   0  0
   -6.5122  -23.3638   51.4066 H   0  0
   -5.7910  -24.9661   53.1689 H   0  0
   -3.8829  -26.4855   52.7593 H   0  0
   -0.8423  -24.9177   51.7832 H   0  0
    1.5722  -23.7747   52.4836 H   0  0
    3.7915  -23.1916   51.0706 H   0  0
   -3.0184  -27.4962   48.5864 H   0  0
   -1.9441  -28.6198   49.4138 H   0  0
   -4.0243  -29.6982   49.5932 H   0  0
   -4.9107  -28.1831   49.8080 H   0  0
   -6.4252  -28.2369   50.7815 H   0  0
   -8.4903  -28.3938   52.1555 H   0  0
   -7.0557  -28.2353   56.4399 H   0  0
   -9.8626  -30.2505   53.1499 H   0  0
  -10.8884  -29.3470   54.5725 H   0  0
   -9.7353  -30.5571   56.1719 H   0  0
   -8.7085  -31.4593   54.7496 H   0  0
   -6.2125  -30.1247   55.3891 H   0  0
   -4.1431  -29.9634   54.0235 H   0  0
   -2.6653  -28.9747   53.2294 H   0  0
   -2.0068  -29.7001   51.7597 H   0  0
   -0.7842  -27.7517   51.7310 H   0  0
   -1.9575  -26.8668   52.6762 H   0  0
  1  2  1  0
  2  3  1  0
  2  4  1  0
  4  5  2  0
  4  9  1  0
  5  6  1  0
  6  7  2  0
  7  8  1  0
  8  9  2  0
  9 10  1  0
 10 11  1  0
 10 19  1  0
 10 35  1  0
 11 12  2  0
 11 13  1  0
 13 14  1  0
 14 15  2  0
 14 18  1  0
 15 16  1  0
 16 17  2  0
 17 18  1  0
 19 20  1  0
 20 21  1  0
 21 22  1  0
 21 34  1  0
 22 23  2  0
 22 33  1  0
 23 24  1  0
 24 25  2  0
 25 26  1  0
 25 32  1  0
 26 27  1  0
 26 30  1  0
 26 31  1  0
 27 28  2  0
 27 29  1  0
 30 31  1  0
 32 33  2  0
 34 35  1  0
  1 36  1  0
  1 37  1  0
  1 38  1  0
  2 39  1  0
  3 40  1  0
  3 41  1  0
  3 42  1  0
  5 43  1  0
  6 44  1  0
  7 45  1  0
  8 46  1  0
 13 47  1  0
 15 48  1  0
 16 49  1  0
 19 50  1  0
 19 51  1  0
 20 52  1  0
 20 53  1  0
 23 54  1  0
 24 55  1  0
 29 56  1  0
 30 57  1  0
 30 58  1  0
 31 59  1  0
 31 60  1  0
 32 61  1  0
 33 62  1  0
 34 63  1  0
 34 64  1  0
 35 65  1  0
 35 66  1  0
M  END
> <Name>
Molecule

> <AbsoluteEnergy>
47.6575

> <Clean Energy>
221.807

> <ConfNumber>
3

> <MOL_NUMBER>
3

> <RelativeEnergy>
2.47559

> <POSE_NUMBER>
46

> <LibDockScore>
115.1532

> <HotSpots>
-2.53,-22.32,48.19,A,29,3
-5.13,-23.32,51.38,A,54,6
-7.93,-28.32,52.38,A,59,24

$$$$
Molecule
  SciTegic05072616053D

 66 70  0  0  0  0            999 V2000
   -1.8254  -29.1201   50.3321 C   0  0  0  1  0  0
   -2.7145  -27.9173   49.9606 C   0  0  0  1  0  0
   -2.8251  -27.7914   48.4267 C   0  0  0  1  0  0
   -2.2171  -26.6476   50.6167 C   0  0  0  1  0  0
   -1.0368  -26.0812   50.0801 C   0  0  0  1  0  0
   -0.4017  -25.0009   50.6991 C   0  0  0  1  0  0
   -0.9363  -24.4621   51.8668 C   0  0  0  1  0  0
   -2.1340  -24.9704   52.3797 C   0  0  0  1  0  0
   -2.8509  -26.0191   51.7425 C   0  0  0  1  0  0
   -4.2361  -26.4390   52.2972 C   0  0  0  1  0  0
   -4.0797  -27.7896   53.0118 C   0  0  0  1  0  0
   -3.0097  -28.3549   52.9783 O   0  0  0  1  0  0
   -5.1342  -28.3768   53.6817 N   0  0  0  1  0  0
   -5.0079  -29.6414   54.4420 C   0  0  0  1  0  0
   -3.9385  -30.5286   54.3929 C   0  0  0  1  0  0
   -4.3119  -31.5507   55.2563 C   0  0  0  1  0  0
   -5.5377  -31.2782   55.7855 N   0  0  0  1  0  0
   -5.9577  -30.1330   55.2903 O   0  0  0  1  0  0
   -5.3398  -26.5611   51.1566 C   0  0  0  1  0  0
   -6.1441  -25.2695   50.8831 C   0  0  0  1  0  0
   -5.2335  -24.1426   51.1627 N   0  0  0  1  0  0
   -4.4532  -23.5338   50.1816 C   0  0  0  1  0  0
   -3.4299  -22.6023   50.4756 C   0  0  0  1  0  0
   -2.5454  -22.1764   49.4645 C   0  0  0  1  0  0
   -2.6910  -22.6548   48.1456 C   0  0  0  1  0  0
   -1.6883  -22.3237   47.0578 C   0  0  0  1  0  0
   -0.6210  -23.4157   46.8676 C   0  0  0  1  0  0
   -0.9718  -24.5720   46.7814 O   0  0  0  1  0  0
    0.6732  -23.0955   46.7938 O   0  0  0  1  0  0
   -2.2095  -21.6197   45.8151 C   0  0  0  1  0  0
   -1.3255  -20.8703   46.7854 C   0  0  0  1  0  0
   -3.7795  -23.4814   47.8297 C   0  0  0  1  0  0
   -4.6513  -23.9079   48.8337 C   0  0  0  1  0  0
   -5.0689  -23.9422   52.6257 C   0  0  0  1  0  0
   -4.8254  -25.3476   53.2850 C   0  0  0  1  0  0
   -0.8321  -28.9770   49.9067 H   0  0
   -2.2642  -30.0304   49.9235 H   0  0
   -1.7511  -29.2038   51.4163 H   0  0
   -3.7200  -28.0863   50.3458 H   0  0
   -3.2617  -28.7046   48.0223 H   0  0
   -1.8296  -27.6512   48.0055 H   0  0
   -3.4548  -26.9394   48.1703 H   0  0
   -0.6140  -26.4959   49.1650 H   0  0
    0.5083  -24.5818   50.2697 H   0  0
   -0.4235  -23.6478   52.3787 H   0  0
   -2.5321  -24.5468   53.3017 H   0  0
   -6.0890  -27.8950   53.6501 H   0  0
   -3.0203  -30.4422   53.8118 H   0  0
   -3.7153  -32.4358   55.4769 H   0  0
   -6.0375  -27.3536   51.4273 H   0  0
   -4.8535  -26.8699   50.2312 H   0  0
   -7.0068  -25.2222   51.5476 H   0  0
   -6.4572  -25.2428   49.8394 H   0  0
   -3.3252  -22.2125   51.4881 H   0  0
   -1.7459  -21.4748   49.7025 H   0  0
    0.8592  -22.5603   47.6778 H   0  0
   -3.2565  -21.3368   45.9245 H   0  0
   -1.6608  -21.9236   44.9237 H   0  0
   -0.3064  -20.7760   46.4103 H   0  0
   -1.9024  -20.1905   47.4123 H   0  0
   -3.9452  -23.7915   46.7980 H   0  0
   -5.4997  -24.5406   48.5729 H   0  0
   -5.9727  -23.4955   53.0402 H   0  0
   -4.2112  -23.2964   52.8138 H   0  0
   -4.1408  -25.2262   54.1245 H   0  0
   -5.7695  -25.7129   53.6890 H   0  0
  1  2  1  0
  2  3  1  0
  2  4  1  0
  4  5  2  0
  4  9  1  0
  5  6  1  0
  6  7  2  0
  7  8  1  0
  8  9  2  0
  9 10  1  0
 10 11  1  0
 10 19  1  0
 10 35  1  0
 11 12  2  0
 11 13  1  0
 13 14  1  0
 14 15  2  0
 14 18  1  0
 15 16  1  0
 16 17  2  0
 17 18  1  0
 19 20  1  0
 20 21  1  0
 21 22  1  0
 21 34  1  0
 22 23  2  0
 22 33  1  0
 23 24  1  0
 24 25  2  0
 25 26  1  0
 25 32  1  0
 26 27  1  0
 26 30  1  0
 26 31  1  0
 27 28  2  0
 27 29  1  0
 30 31  1  0
 32 33  2  0
 34 35  1  0
  1 36  1  0
  1 37  1  0
  1 38  1  0
  2 39  1  0
  3 40  1  0
  3 41  1  0
  3 42  1  0
  5 43  1  0
  6 44  1  0
  7 45  1  0
  8 46  1  0
 13 47  1  0
 15 48  1  0
 16 49  1  0
 19 50  1  0
 19 51  1  0
 20 52  1  0
 20 53  1  0
 23 54  1  0
 24 55  1  0
 29 56  1  0
 30 57  1  0
 30 58  1  0
 31 59  1  0
 31 60  1  0
 32 61  1  0
 33 62  1  0
 34 63  1  0
 34 64  1  0
 35 65  1  0
 35 66  1  0
M  END
> <Name>
Molecule

> <AbsoluteEnergy>
65.1788

> <Clean Energy>
221.807

> <ConfNumber>
81

> <MOL_NUMBER>
3

> <RelativeEnergy>
19.997

> <POSE_NUMBER>
47

> <LibDockScore>
115.0481

> <HotSpots>
-4.33,-32.92,55.19,A,75,16
-6.33,-26.32,51.98,A,57,20
-3.53,-22.32,46.59,A,20,30

$$$$
Molecule
  SciTegic05072616053D

 66 70  0  0  0  0            999 V2000
   -1.8112  -29.1228   50.3187 C   0  0  0  1  0  0
   -2.7059  -27.9208   49.9583 C   0  0  0  1  0  0
   -2.8255  -27.7874   48.4257 C   0  0  0  1  0  0
   -2.2086  -26.6530   50.6181 C   0  0  0  1  0  0
   -1.0278  -26.0855   50.0837 C   0  0  0  1  0  0
   -0.3927  -25.0070   50.7059 C   0  0  0  1  0  0
   -0.9279  -24.4712   51.8748 C   0  0  0  1  0  0
   -2.1261  -24.9805   52.3856 C   0  0  0  1  0  0
   -2.8429  -26.0273   51.7451 C   0  0  0  1  0  0
   -4.2285  -26.4483   52.2979 C   0  0  0  1  0  0
   -4.0724  -27.7994   53.0114 C   0  0  0  1  0  0
   -3.0113  -28.3794   52.9520 O   0  0  0  1  0  0
   -5.1174  -28.3710   53.7091 N   0  0  0  1  0  0
   -5.0013  -29.6583   54.4319 C   0  0  0  1  0  0
   -3.9933  -30.6030   54.2749 C   0  0  0  1  0  0
   -4.3515  -31.6226   55.1478 C   0  0  0  1  0  0
   -5.5104  -31.2940   55.7849 N   0  0  0  1  0  0
   -5.9032  -30.1155   55.3490 O   0  0  0  1  0  0
   -5.3309  -26.5696   51.1560 C   0  0  0  1  0  0
   -6.1354  -25.2781   50.8829 C   0  0  0  1  0  0
   -5.2256  -24.1511   51.1646 N   0  0  0  1  0  0
   -4.4445  -23.5410   50.1849 C   0  0  0  1  0  0
   -3.4108  -22.6218   50.4820 C   0  0  0  1  0  0
   -2.5274  -22.1954   49.4702 C   0  0  0  1  0  0
   -2.6841  -22.6607   48.1479 C   0  0  0  1  0  0
   -1.6838  -22.3294   47.0580 C   0  0  0  1  0  0
   -0.6159  -23.4207   46.8665 C   0  0  0  1  0  0
   -0.9656  -24.5776   46.7842 O   0  0  0  1  0  0
    0.6778  -23.0991   46.7875 O   0  0  0  1  0  0
   -2.2078  -21.6267   45.8158 C   0  0  0  1  0  0
   -1.3228  -20.8760   46.7839 C   0  0  0  1  0  0
   -3.7819  -23.4741   47.8302 C   0  0  0  1  0  0
   -4.6528  -23.9013   48.8348 C   0  0  0  1  0  0
   -5.0626  -23.9521   52.6280 C   0  0  0  1  0  0
   -4.8193  -25.3581   53.2862 C   0  0  0  1  0  0
   -0.8207  -28.9746   49.8885 H   0  0
   -2.2496  -30.0323   49.9079 H   0  0
   -1.7306  -29.2118   51.4021 H   0  0
   -3.7088  -28.0948   50.3483 H   0  0
   -3.2616  -28.6998   48.0191 H   0  0
   -1.8328  -27.6421   47.9997 H   0  0
   -3.4591  -26.9360   48.1772 H   0  0
   -0.6046  -26.4979   49.1678 H   0  0
    0.5176  -24.5870   50.2781 H   0  0
   -0.4151  -23.6585   52.3892 H   0  0
   -2.5247  -24.5593   53.3085 H   0  0
   -6.0568  -27.8591   53.7286 H   0  0
   -3.1239  -30.5548   53.6192 H   0  0
   -3.7909  -32.5450   55.2999 H   0  0
   -6.0286  -27.3627   51.4251 H   0  0
   -4.8435  -26.8773   50.2309 H   0  0
   -6.9989  -25.2318   51.5465 H   0  0
   -6.4474  -25.2505   49.8389 H   0  0
   -3.2973  -22.2420   51.4974 H   0  0
   -1.7201  -21.5035   49.7103 H   0  0
    0.8663  -22.5617   47.6697 H   0  0
   -3.2548  -21.3447   45.9269 H   0  0
   -1.6604  -21.9307   44.9236 H   0  0
   -0.3045  -20.7811   46.4069 H   0  0
   -1.8992  -20.1962   47.4114 H   0  0
   -3.9556  -23.7735   46.7966 H   0  0
   -5.5084  -24.5237   48.5727 H   0  0
   -5.9669  -23.5062   53.0420 H   0  0
   -4.2053  -23.3061   52.8176 H   0  0
   -4.1357  -25.2373   54.1265 H   0  0
   -5.7637  -25.7242   53.6888 H   0  0
  1  2  1  0
  2  3  1  0
  2  4  1  0
  4  5  2  0
  4  9  1  0
  5  6  1  0
  6  7  2  0
  7  8  1  0
  8  9  2  0
  9 10  1  0
 10 11  1  0
 10 19  1  0
 10 35  1  0
 11 12  2  0
 11 13  1  0
 13 14  1  0
 14 15  2  0
 14 18  1  0
 15 16  1  0
 16 17  2  0
 17 18  1  0
 19 20  1  0
 20 21  1  0
 21 22  1  0
 21 34  1  0
 22 23  2  0
 22 33  1  0
 23 24  1  0
 24 25  2  0
 25 26  1  0
 25 32  1  0
 26 27  1  0
 26 30  1  0
 26 31  1  0
 27 28  2  0
 27 29  1  0
 30 31  1  0
 32 33  2  0
 34 35  1  0
  1 36  1  0
  1 37  1  0
  1 38  1  0
  2 39  1  0
  3 40  1  0
  3 41  1  0
  3 42  1  0
  5 43  1  0
  6 44  1  0
  7 45  1  0
  8 46  1  0
 13 47  1  0
 15 48  1  0
 16 49  1  0
 19 50  1  0
 19 51  1  0
 20 52  1  0
 20 53  1  0
 23 54  1  0
 24 55  1  0
 29 56  1  0
 30 57  1  0
 30 58  1  0
 31 59  1  0
 31 60  1  0
 32 61  1  0
 33 62  1  0
 34 63  1  0
 34 64  1  0
 35 65  1  0
 35 66  1  0
M  END
> <Name>
Molecule

> <AbsoluteEnergy>
65.1788

> <Clean Energy>
221.807

> <ConfNumber>
81

> <MOL_NUMBER>
3

> <RelativeEnergy>
19.997

> <POSE_NUMBER>
48

> <LibDockScore>
114.6831

> <HotSpots>
-1.93,-29.12,49.19,A,34,3
-4.33,-32.92,55.19,A,75,16
0.27,-22.52,46.78,A,23,31

$$$$
Molecule
  SciTegic05072616053D

 66 70  0  0  0  0            999 V2000
   -2.1814  -25.9636   46.1939 C   0  0  0  1  0  0
   -2.2414  -24.8852   47.2914 C   0  0  0  1  0  0
   -2.9067  -23.5921   46.7857 C   0  0  0  1  0  0
   -0.8859  -24.6236   47.9071 C   0  0  0  1  0  0
    0.0979  -24.0654   47.0623 C   0  0  0  1  0  0
    1.3884  -23.7914   47.5300 C   0  0  0  1  0  0
    1.7177  -24.0768   48.8573 C   0  0  0  1  0  0
    0.7571  -24.6278   49.7154 C   0  0  0  1  0  0
   -0.5618  -24.9085   49.2736 C   0  0  0  1  0  0
   -1.5896  -25.4964   50.2491 C   0  0  0  1  0  0
   -2.7598  -24.5075   50.4022 C   0  0  0  1  0  0
   -2.5197  -23.3483   50.6576 O   0  0  0  1  0  0
   -4.0736  -24.9039   50.2602 N   0  0  0  1  0  0
   -5.2131  -23.9686   50.2579 C   0  0  0  1  0  0
   -6.5413  -24.3651   50.2929 C   0  0  0  1  0  0
   -7.2433  -23.1652   50.3061 C   0  0  0  1  0  0
   -6.3626  -22.1231   50.2743 N   0  0  0  1  0  0
   -5.1408  -22.6111   50.2475 O   0  0  0  1  0  0
   -1.0519  -25.6541   51.7114 C   0  0  0  1  0  0
   -2.0975  -26.2245   52.7017 C   0  0  0  1  0  0
   -2.9085  -27.3129   52.0773 N   0  0  0  1  0  0
   -4.1978  -27.6473   52.4972 C   0  0  0  1  0  0
   -4.4887  -28.9423   52.9838 C   0  0  0  1  0  0
   -5.8028  -29.3064   53.3223 C   0  0  0  1  0  0
   -6.8512  -28.3783   53.1937 C   0  0  0  1  0  0
   -8.2783  -28.7804   53.5000 C   0  0  0  1  0  0
   -8.9456  -29.5768   52.3694 C   0  0  0  1  0  0
   -8.8810  -29.1650   51.2326 O   0  0  0  1  0  0
   -9.5975  -30.7125   52.6352 O   0  0  0  1  0  0
   -8.6398  -29.0782   54.9499 C   0  0  0  1  0  0
   -9.1480  -27.8161   54.2925 C   0  0  0  1  0  0
   -6.5670  -27.0717   52.7626 C   0  0  0  1  0  0
   -5.2550  -26.7085   52.4257 C   0  0  0  1  0  0
   -2.2572  -27.9754   50.9132 C   0  0  0  1  0  0
   -1.9578  -26.9574   49.7817 C   0  0  0  1  0  0
   -1.6155  -25.5676   45.3507 H   0  0
   -3.1981  -26.1803   45.8662 H   0  0
   -1.7074  -26.8690   46.5730 H   0  0
   -2.8739  -25.2778   48.0876 H   0  0
   -3.9168  -23.8305   46.4526 H   0  0
   -2.3341  -23.2178   45.9371 H   0  0
   -2.9386  -22.8436   47.5774 H   0  0
   -0.1525  -23.8433   46.0250 H   0  0
    2.1326  -23.3576   46.8621 H   0  0
    2.7227  -23.8706   49.2255 H   0  0
    1.0296  -24.8463   50.7479 H   0  0
   -4.2767  -25.9481   50.1454 H   0  0
   -6.9410  -25.3791   50.3068 H   0  0
   -8.3288  -23.0713   50.3370 H   0  0
   -0.7199  -24.6809   52.0730 H   0  0
   -0.1837  -26.3130   51.6988 H   0  0
   -1.5833  -26.6200   53.5776 H   0  0
   -2.7629  -25.4232   53.0230 H   0  0
   -3.6831  -29.6677   53.0979 H   0  0
   -6.0105  -30.3127   53.6862 H   0  0
  -10.3125  -30.4412   53.3547 H   0  0
   -7.8047  -28.8743   55.6200 H   0  0
   -9.4188  -29.8375   55.0191 H   0  0
  -10.1982  -27.9028   54.0138 H   0  0
   -8.5838  -26.9404   54.6132 H   0  0
   -7.3693  -26.3375   52.6897 H   0  0
   -5.0462  -25.6882   52.1040 H   0  0
   -2.9149  -28.7551   50.5290 H   0  0
   -1.3238  -28.4351   51.2382 H   0  0
   -1.1387  -27.3457   49.1764 H   0  0
   -2.8277  -26.9032   49.1272 H   0  0
  1  2  1  0
  2  3  1  0
  2  4  1  0
  4  5  2  0
  4  9  1  0
  5  6  1  0
  6  7  2  0
  7  8  1  0
  8  9  2  0
  9 10  1  0
 10 11  1  0
 10 19  1  0
 10 35  1  0
 11 12  2  0
 11 13  1  0
 13 14  1  0
 14 15  2  0
 14 18  1  0
 15 16  1  0
 16 17  2  0
 17 18  1  0
 19 20  1  0
 20 21  1  0
 21 22  1  0
 21 34  1  0
 22 23  2  0
 22 33  1  0
 23 24  1  0
 24 25  2  0
 25 26  1  0
 25 32  1  0
 26 27  1  0
 26 30  1  0
 26 31  1  0
 27 28  2  0
 27 29  1  0
 30 31  1  0
 32 33  2  0
 34 35  1  0
  1 36  1  0
  1 37  1  0
  1 38  1  0
  2 39  1  0
  3 40  1  0
  3 41  1  0
  3 42  1  0
  5 43  1  0
  6 44  1  0
  7 45  1  0
  8 46  1  0
 13 47  1  0
 15 48  1  0
 16 49  1  0
 19 50  1  0
 19 51  1  0
 20 52  1  0
 20 53  1  0
 23 54  1  0
 24 55  1  0
 29 56  1  0
 30 57  1  0
 30 58  1  0
 31 59  1  0
 31 60  1  0
 32 61  1  0
 33 62  1  0
 34 63  1  0
 34 64  1  0
 35 65  1  0
 35 66  1  0
M  END
> <Name>
Molecule

> <AbsoluteEnergy>
53.2308

> <Clean Energy>
221.807

> <ConfNumber>
23

> <MOL_NUMBER>
3

> <RelativeEnergy>
8.04895

> <POSE_NUMBER>
49

> <LibDockScore>
114.65

> <HotSpots>
2.67,-23.92,48.98,A,32,6
-6.53,-23.32,50.38,A,45,16
-8.73,-28.12,54.38,A,70,31

$$$$
Molecule
  SciTegic05072616053D

 66 70  0  0  0  0            999 V2000
   -0.9207  -25.6167   46.3324 C   0  0  0  1  0  0
   -2.2559  -25.5313   47.0979 C   0  0  0  1  0  0
   -3.4576  -25.6778   46.1431 C   0  0  0  1  0  0
   -2.3138  -26.5226   48.2385 C   0  0  0  1  0  0
   -2.3387  -27.8881   47.8776 C   0  0  0  1  0  0
   -2.3179  -28.8942   48.8483 C   0  0  0  1  0  0
   -2.2607  -28.5470   50.1983 C   0  0  0  1  0  0
   -2.2619  -27.1990   50.5781 C   0  0  0  1  0  0
   -2.3278  -26.1529   49.6263 C   0  0  0  1  0  0
   -2.3793  -24.6802   50.0831 C   0  0  0  1  0  0
   -1.0575  -24.0458   49.6421 C   0  0  0  1  0  0
   -0.9974  -23.1435   48.8390 O   0  0  0  1  0  0
    0.0806  -24.5649   50.2317 N   0  0  0  1  0  0
    1.4640  -24.1318   50.0323 C   0  0  0  1  0  0
    2.5087  -24.6478   50.7775 C   0  0  0  1  0  0
    3.6199  -23.9917   50.2721 C   0  0  0  1  0  0
    3.2302  -23.1296   49.2868 N   0  0  0  1  0  0
    1.9245  -23.2169   49.1437 O   0  0  0  1  0  0
   -2.3708  -24.3735   51.6504 C   0  0  0  1  0  0
   -3.7547  -24.2012   52.3036 C   0  0  0  1  0  0
   -4.6404  -25.1802   51.6541 N   0  0  0  1  0  0
   -4.9401  -26.4091   52.2333 C   0  0  0  1  0  0
   -6.0016  -27.2266   51.7843 C   0  0  0  1  0  0
   -6.1595  -28.5280   52.3018 C   0  0  0  1  0  0
   -5.2689  -29.0165   53.2797 C   0  0  0  1  0  0
   -5.3384  -30.4413   53.7802 C   0  0  0  1  0  0
   -4.1597  -31.2937   53.2966 C   0  0  0  1  0  0
   -4.2677  -32.4985   53.2854 O   0  0  0  1  0  0
   -3.0318  -30.6921   52.9056 O   0  0  0  1  0  0
   -5.8399  -30.6661   55.1978 C   0  0  0  1  0  0
   -6.6850  -31.1049   54.0252 C   0  0  0  1  0  0
   -4.2701  -28.1731   53.7900 C   0  0  0  1  0  0
   -4.1183  -26.8832   53.2813 C   0  0  0  1  0  0
   -4.9780  -24.7879   50.2541 C   0  0  0  1  0  0
   -3.7465  -24.0629   49.6042 C   0  0  0  1  0  0
   -0.8931  -24.8218   45.5871 H   0  0
   -0.8686  -26.5805   45.8261 H   0  0
   -0.0825  -25.5114   47.0212 H   0  0
   -2.3157  -24.5383   47.5435 H   0  0
   -3.3880  -26.6412   45.6381 H   0  0
   -3.4125  -24.8825   45.3991 H   0  0
   -4.3927  -25.6152   46.6997 H   0  0
   -2.3748  -28.1624   46.8233 H   0  0
   -2.3462  -29.9428   48.5522 H   0  0
   -2.2150  -29.3264   50.9589 H   0  0
   -2.2106  -26.9478   51.6375 H   0  0
   -0.0675  -25.3771   50.9124 H   0  0
    2.4678  -25.3925   51.5724 H   0  0
    4.6459  -24.1405   50.6087 H   0  0
   -1.7914  -23.4670   51.8256 H   0  0
   -1.8466  -25.1817   52.1604 H   0  0
   -4.1254  -23.1914   52.1274 H   0  0
   -3.6891  -24.4110   53.3712 H   0  0
   -6.6995  -26.8501   51.0365 H   0  0
   -6.9732  -29.1593   51.9447 H   0  0
   -2.7389  -30.1073   53.7270 H   0  0
   -6.2150  -29.7435   55.6408 H   0  0
   -5.3380  -31.5106   55.6701 H   0  0
   -6.6333  -32.1831   53.8735 H   0  0
   -7.5093  -30.4153   53.8431 H   0  0
   -3.6125  -28.5262   54.5844 H   0  0
   -3.3527  -26.2294   53.6991 H   0  0
   -5.8340  -24.1132   50.2608 H   0  0
   -5.2215  -25.6789   49.6754 H   0  0
   -3.8163  -24.1452   48.5196 H   0  0
   -3.7739  -23.0061   49.8699 H   0  0
  1  2  1  0
  2  3  1  0
  2  4  1  0
  4  5  2  0
  4  9  1  0
  5  6  1  0
  6  7  2  0
  7  8  1  0
  8  9  2  0
  9 10  1  0
 10 11  1  0
 10 19  1  0
 10 35  1  0
 11 12  2  0
 11 13  1  0
 13 14  1  0
 14 15  2  0
 14 18  1  0
 15 16  1  0
 16 17  2  0
 17 18  1  0
 19 20  1  0
 20 21  1  0
 21 22  1  0
 21 34  1  0
 22 23  2  0
 22 33  1  0
 23 24  1  0
 24 25  2  0
 25 26  1  0
 25 32  1  0
 26 27  1  0
 26 30  1  0
 26 31  1  0
 27 28  2  0
 27 29  1  0
 30 31  1  0
 32 33  2  0
 34 35  1  0
  1 36  1  0
  1 37  1  0
  1 38  1  0
  2 39  1  0
  3 40  1  0
  3 41  1  0
  3 42  1  0
  5 43  1  0
  6 44  1  0
  7 45  1  0
  8 46  1  0
 13 47  1  0
 15 48  1  0
 16 49  1  0
 19 50  1  0
 19 51  1  0
 20 52  1  0
 20 53  1  0
 23 54  1  0
 24 55  1  0
 29 56  1  0
 30 57  1  0
 30 58  1  0
 31 59  1  0
 31 60  1  0
 32 61  1  0
 33 62  1  0
 34 63  1  0
 34 64  1  0
 35 65  1  0
 35 66  1  0
M  END
> <Name>
Molecule

> <AbsoluteEnergy>
64.3325

> <Clean Energy>
221.807

> <ConfNumber>
76

> <MOL_NUMBER>
3

> <RelativeEnergy>
19.1507

> <POSE_NUMBER>
50

> <LibDockScore>
114.1596

> <HotSpots>
-1.93,-29.12,49.19,A,34,6
2.67,-22.92,49.98,A,39,16
-3.33,-32.52,54.19,P,48,28

$$$$
Molecule
  SciTegic05072616053D

 66 70  0  0  0  0            999 V2000
   -2.4721  -26.6196   45.7841 C   0  0  0  1  0  0
   -2.6424  -25.6489   46.9703 C   0  0  0  1  0  0
   -3.4804  -24.4209   46.5694 C   0  0  0  1  0  0
   -1.3156  -25.2548   47.5799 C   0  0  0  1  0  0
   -0.3917  -24.6189   46.7203 C   0  0  0  1  0  0
    0.8790  -24.2444   47.1674 C   0  0  0  1  0  0
    1.2501  -24.4993   48.4897 C   0  0  0  1  0  0
    0.3441  -25.1118   49.3657 C   0  0  0  1  0  0
   -0.9595  -25.4891   48.9490 C   0  0  0  1  0  0
   -1.9230  -26.1169   49.9650 C   0  0  0  1  0  0
   -3.3071  -25.4546   49.8952 C   0  0  0  1  0  0
   -4.3008  -26.1382   49.7877 O   0  0  0  1  0  0
   -3.4328  -24.0821   49.9621 N   0  0  0  1  0  0
   -4.7461  -23.4140   50.0383 C   0  0  0  1  0  0
   -4.9428  -22.0422   49.9906 C   0  0  0  1  0  0
   -6.3221  -21.9007   50.1080 C   0  0  0  1  0  0
   -6.8980  -23.1315   50.2177 N   0  0  0  1  0  0
   -5.9479  -24.0383   50.1752 O   0  0  0  1  0  0
   -1.9928  -27.6707   49.7387 C   0  0  0  1  0  0
   -2.3260  -28.5212   50.9919 C   0  0  0  1  0  0
   -3.1424  -27.7528   51.9711 N   0  0  0  1  0  0
   -4.4119  -28.1617   52.3647 C   0  0  0  1  0  0
   -4.7532  -29.5325   52.3924 C   0  0  0  1  0  0
   -6.0390  -29.9439   52.7832 C   0  0  0  1  0  0
   -7.0064  -28.9912   53.1525 C   0  0  0  1  0  0
   -8.3917  -29.4267   53.5682 C   0  0  0  1  0  0
   -8.6601  -29.2148   55.0508 C   0  0  0  1  0  0
   -8.7218  -30.1785   55.7804 O   0  0  0  1  0  0
   -8.8254  -27.9785   55.5181 O   0  0  0  1  0  0
   -9.0451  -30.6208   52.8890 C   0  0  0  1  0  0
   -9.5472  -29.2286   52.5996 C   0  0  0  1  0  0
   -6.6761  -27.6245   53.1320 C   0  0  0  1  0  0
   -5.3934  -27.2135   52.7393 C   0  0  0  1  0  0
   -2.5117  -26.4932   52.4673 C   0  0  0  1  0  0
   -1.4772  -25.9426   51.4571 C   0  0  0  1  0  0
   -1.9784  -26.0921   44.9679 H   0  0
   -3.4585  -26.9440   45.4525 H   0  0
   -1.8773  -27.4823   46.0842 H   0  0
   -3.1923  -26.1804   47.7470 H   0  0
   -4.4599  -24.7602   46.2325 H   0  0
   -2.9799  -23.9083   45.7479 H   0  0
   -3.5912  -23.7457   47.4179 H   0  0
   -0.6755  -24.4162   45.6876 H   0  0
    1.5768  -23.7558   46.4873 H   0  0
    2.2443  -24.2218   48.8400 H   0  0
    0.6484  -25.3037   50.3946 H   0  0
   -2.5472  -23.4816   49.9586 H   0  0
   -4.1927  -21.2583   49.8857 H   0  0
   -6.8592  -20.9522   50.1117 H   0  0
   -1.0368  -28.0071   49.3375 H   0  0
   -2.7406  -27.8765   48.9728 H   0  0
   -1.3984  -28.8363   51.4698 H   0  0
   -2.8780  -29.4099   50.6859 H   0  0
   -4.0115  -30.2788   52.1077 H   0  0
   -6.2878  -31.0050   52.8003 H   0  0
   -9.6132  -27.5793   54.9502 H   0  0
   -9.7083  -31.1546   53.5697 H   0  0
   -8.4290  -31.0039   52.0755 H   0  0
   -9.2001  -28.8687   51.6310 H   0  0
  -10.4783  -29.0187   53.1261 H   0  0
   -7.4192  -26.8818   53.4222 H   0  0
   -5.1499  -26.1512   52.7225 H   0  0
   -2.0145  -26.6905   53.4170 H   0  0
   -3.2870  -25.7445   52.6300 H   0  0
   -1.3161  -24.8836   51.6585 H   0  0
   -0.5286  -26.4584   51.6062 H   0  0
  1  2  1  0
  2  3  1  0
  2  4  1  0
  4  5  2  0
  4  9  1  0
  5  6  1  0
  6  7  2  0
  7  8  1  0
  8  9  2  0
  9 10  1  0
 10 11  1  0
 10 19  1  0
 10 35  1  0
 11 12  2  0
 11 13  1  0
 13 14  1  0
 14 15  2  0
 14 18  1  0
 15 16  1  0
 16 17  2  0
 17 18  1  0
 19 20  1  0
 20 21  1  0
 21 22  1  0
 21 34  1  0
 22 23  2  0
 22 33  1  0
 23 24  1  0
 24 25  2  0
 25 26  1  0
 25 32  1  0
 26 27  1  0
 26 30  1  0
 26 31  1  0
 27 28  2  0
 27 29  1  0
 30 31  1  0
 32 33  2  0
 34 35  1  0
  1 36  1  0
  1 37  1  0
  1 38  1  0
  2 39  1  0
  3 40  1  0
  3 41  1  0
  3 42  1  0
  5 43  1  0
  6 44  1  0
  7 45  1  0
  8 46  1  0
 13 47  1  0
 15 48  1  0
 16 49  1  0
 19 50  1  0
 19 51  1  0
 20 52  1  0
 20 53  1  0
 23 54  1  0
 24 55  1  0
 29 56  1  0
 30 57  1  0
 30 58  1  0
 31 59  1  0
 31 60  1  0
 32 61  1  0
 33 62  1  0
 34 63  1  0
 34 64  1  0
 35 65  1  0
 35 66  1  0
M  END
> <Name>
Molecule

> <AbsoluteEnergy>
47.9229

> <Clean Energy>
221.807

> <ConfNumber>
5

> <MOL_NUMBER>
3

> <RelativeEnergy>
2.74103

> <POSE_NUMBER>
51

> <LibDockScore>
114.1416

> <HotSpots>
0.27,-24.92,46.38,A,19,6
-4.73,-22.32,50.38,A,46,15
-7.73,-27.92,56.98,P,70,29

$$$$
Molecule
  SciTegic05072616053D

 66 70  0  0  0  0            999 V2000
   -2.3458  -26.6217   45.7856 C   0  0  0  1  0  0
   -2.5401  -25.6905   46.9996 C   0  0  0  1  0  0
   -3.4045  -24.4702   46.6329 C   0  0  0  1  0  0
   -1.2237  -25.2852   47.6240 C   0  0  0  1  0  0
   -0.2910  -24.6519   46.7720 C   0  0  0  1  0  0
    0.9717  -24.2678   47.2335 C   0  0  0  1  0  0
    1.3257  -24.5102   48.5628 C   0  0  0  1  0  0
    0.4106  -25.1199   49.4313 C   0  0  0  1  0  0
   -0.8854  -25.5067   48.9998 C   0  0  0  1  0  0
   -1.8598  -26.1308   50.0076 C   0  0  0  1  0  0
   -3.2410  -25.4637   49.9256 C   0  0  0  1  0  0
   -4.2339  -26.1424   49.7847 O   0  0  0  1  0  0
   -3.3651  -24.0926   50.0191 N   0  0  0  1  0  0
   -4.6780  -23.4235   50.0918 C   0  0  0  1  0  0
   -4.8753  -22.0527   50.0215 C   0  0  0  1  0  0
   -6.2539  -21.9094   50.1448 C   0  0  0  1  0  0
   -6.8289  -23.1382   50.2793 N   0  0  0  1  0  0
   -5.8788  -24.0454   50.2467 O   0  0  0  1  0  0
   -1.9332  -27.6844   49.7811 C   0  0  0  1  0  0
   -2.2802  -28.5334   51.0316 C   0  0  0  1  0  0
   -3.1024  -27.7618   52.0034 N   0  0  0  1  0  0
   -4.3766  -28.1661   52.3861 C   0  0  0  1  0  0
   -4.6948  -29.5378   52.5029 C   0  0  0  1  0  0
   -5.9852  -29.9452   52.8825 C   0  0  0  1  0  0
   -6.9806  -28.9876   53.1512 C   0  0  0  1  0  0
   -8.3709  -29.4191   53.5542 C   0  0  0  1  0  0
   -8.6678  -29.1651   55.0247 C   0  0  0  1  0  0
   -8.7585  -30.1085   55.7773 O   0  0  0  1  0  0
   -8.8256  -27.9149   55.4563 O   0  0  0  1  0  0
   -9.0048  -30.6368   52.8989 C   0  0  0  1  0  0
   -9.5094  -29.2569   52.5592 C   0  0  0  1  0  0
   -6.6736  -27.6196   53.0415 C   0  0  0  1  0  0
   -5.3861  -27.2129   52.6599 C   0  0  0  1  0  0
   -2.4717  -26.5042   52.5048 C   0  0  0  1  0  0
   -1.4265  -25.9576   51.5034 C   0  0  0  1  0  0
   -1.8624  -26.0595   44.9867 H   0  0
   -3.3240  -26.9580   45.4420 H   0  0
   -1.7325  -27.4795   46.0617 H   0  0
   -3.0795  -26.2568   47.7589 H   0  0
   -4.3756  -24.8211   46.2836 H   0  0
   -2.9139  -23.9225   45.8283 H   0  0
   -3.5321  -23.8230   47.5006 H   0  0
   -0.5615  -24.4589   45.7339 H   0  0
    1.6765  -23.7815   46.5591 H   0  0
    2.3136  -24.2251   48.9245 H   0  0
    0.7016  -25.3021   50.4658 H   0  0
   -2.4785  -23.4940   50.0396 H   0  0
   -4.1260  -21.2707   49.8985 H   0  0
   -6.7912  -20.9611   50.1353 H   0  0
   -0.9750  -28.0243   49.3882 H   0  0
   -2.6751  -27.8877   49.0089 H   0  0
   -1.3579  -28.8515   51.5176 H   0  0
   -2.8327  -29.4202   50.7211 H   0  0
   -3.9314  -30.2879   52.2964 H   0  0
   -6.2158  -31.0070   52.9691 H   0  0
   -9.5954  -27.5200   54.8614 H   0  0
   -9.6775  -31.1544   53.5828 H   0  0
   -8.3716  -31.0399   52.1085 H   0  0
   -9.1466  -28.9237   51.5869 H   0  0
  -10.4512  -29.0374   53.0621 H   0  0
   -7.4385  -26.8726   53.2537 H   0  0
   -5.1607  -26.1500   52.5733 H   0  0
   -1.9835  -26.7029   53.4589 H   0  0
   -3.2457  -25.7527   52.6604 H   0  0
   -1.2634  -24.8991   51.7059 H   0  0
   -0.4811  -26.4767   51.6609 H   0  0
  1  2  1  0
  2  3  1  0
  2  4  1  0
  4  5  2  0
  4  9  1  0
  5  6  1  0
  6  7  2  0
  7  8  1  0
  8  9  2  0
  9 10  1  0
 10 11  1  0
 10 19  1  0
 10 35  1  0
 11 12  2  0
 11 13  1  0
 13 14  1  0
 14 15  2  0
 14 18  1  0
 15 16  1  0
 16 17  2  0
 17 18  1  0
 19 20  1  0
 20 21  1  0
 21 22  1  0
 21 34  1  0
 22 23  2  0
 22 33  1  0
 23 24  1  0
 24 25  2  0
 25 26  1  0
 25 32  1  0
 26 27  1  0
 26 30  1  0
 26 31  1  0
 27 28  2  0
 27 29  1  0
 30 31  1  0
 32 33  2  0
 34 35  1  0
  1 36  1  0
  1 37  1  0
  1 38  1  0
  2 39  1  0
  3 40  1  0
  3 41  1  0
  3 42  1  0
  5 43  1  0
  6 44  1  0
  7 45  1  0
  8 46  1  0
 13 47  1  0
 15 48  1  0
 16 49  1  0
 19 50  1  0
 19 51  1  0
 20 52  1  0
 20 53  1  0
 23 54  1  0
 24 55  1  0
 29 56  1  0
 30 57  1  0
 30 58  1  0
 31 59  1  0
 31 60  1  0
 32 61  1  0
 33 62  1  0
 34 63  1  0
 34 64  1  0
 35 65  1  0
 35 66  1  0
M  END
> <Name>
Molecule

> <AbsoluteEnergy>
47.9229

> <Clean Energy>
221.807

> <ConfNumber>
5

> <MOL_NUMBER>
3

> <RelativeEnergy>
2.74103

> <POSE_NUMBER>
52

> <LibDockScore>
113.9034

> <HotSpots>
-2.93,-26.32,45.98,A,15,1
-8.13,-23.72,49.98,P,34,17
-9.53,-30.12,52.78,A,62,31

$$$$
Molecule
  SciTegic05072616053D

 66 70  0  0  0  0            999 V2000
   -2.2995  -26.6331   45.5653 C   0  0  0  1  0  0
   -2.4688  -25.6823   46.7678 C   0  0  0  1  0  0
   -3.3174  -24.4539   46.3914 C   0  0  0  1  0  0
   -1.1409  -25.2889   47.3753 C   0  0  0  1  0  0
   -0.2038  -24.6875   46.5054 C   0  0  0  1  0  0
    1.0688  -24.3173   46.9509 C   0  0  0  1  0  0
    1.4285  -24.5419   48.2817 C   0  0  0  1  0  0
    0.5095  -25.1198   49.1675 C   0  0  0  1  0  0
   -0.7962  -25.4916   48.7524 C   0  0  0  1  0  0
   -1.7738  -26.0804   49.7783 C   0  0  0  1  0  0
   -3.1506  -25.4067   49.6786 C   0  0  0  1  0  0
   -4.1288  -26.0657   49.4045 O   0  0  0  1  0  0
   -3.2878  -24.0528   49.9068 N   0  0  0  1  0  0
   -4.6068  -23.4084   50.0544 C   0  0  0  1  0  0
   -4.8171  -22.0402   50.1363 C   0  0  0  1  0  0
   -6.1968  -21.9246   50.2761 C   0  0  0  1  0  0
   -6.7599  -23.1662   50.2746 N   0  0  0  1  0  0
   -5.8014  -24.0552   50.1409 O   0  0  0  1  0  0
   -1.8577  -27.6393   49.5959 C   0  0  0  1  0  0
   -2.2091  -28.4502   50.8702 C   0  0  0  1  0  0
   -3.0252  -27.6460   51.8205 N   0  0  0  1  0  0
   -4.3017  -28.0308   52.2155 C   0  0  0  1  0  0
   -4.6091  -29.3915   52.4400 C   0  0  0  1  0  0
   -5.9018  -29.7797   52.8319 C   0  0  0  1  0  0
   -6.9101  -28.8138   53.0054 C   0  0  0  1  0  0
   -8.3027  -29.2252   53.4212 C   0  0  0  1  0  0
   -8.6284  -28.8476   54.8587 C   0  0  0  1  0  0
   -8.5207  -29.6857   55.7252 O   0  0  0  1  0  0
   -9.0280  -27.6080   55.1376 O   0  0  0  1  0  0
   -8.9120  -30.5029   52.8642 C   0  0  0  1  0  0
   -9.4250  -29.1640   52.3968 C   0  0  0  1  0  0
   -6.6139  -27.4563   52.7882 C   0  0  0  1  0  0
   -5.3242  -27.0689   52.3944 C   0  0  0  1  0  0
   -2.3856  -26.3790   52.2855 C   0  0  0  1  0  0
   -1.3378  -25.8679   51.2683 C   0  0  0  1  0  0
   -1.8144  -26.0896   44.7545 H   0  0
   -3.2858  -26.9589   45.2347 H   0  0
   -1.6971  -27.4964   45.8481 H   0  0
   -3.0102  -26.2296   47.5395 H   0  0
   -4.2968  -24.7944   46.0553 H   0  0
   -2.8254  -23.9251   45.5751 H   0  0
   -3.4274  -23.7928   47.2510 H   0  0
   -0.4786  -24.5085   45.4659 H   0  0
    1.7769  -23.8556   46.2628 H   0  0
    2.4239  -24.2677   48.6311 H   0  0
    0.8050  -25.2884   50.2030 H   0  0
   -2.4072  -23.4494   49.9792 H   0  0
   -4.0755  -21.2422   50.0997 H   0  0
   -6.7430  -20.9862   50.3720 H   0  0
   -0.9022  -27.9966   49.2120 H   0  0
   -2.6017  -27.8595   48.8303 H   0  0
   -1.2884  -28.7606   51.3643 H   0  0
   -2.7677  -29.3418   50.5854 H   0  0
   -3.8356  -30.1480   52.3079 H   0  0
   -6.1241  -30.8331   53.0021 H   0  0
   -9.8676  -27.4521   54.5266 H   0  0
   -9.5912  -30.9669   53.5793 H   0  0
   -8.2607  -30.9657   52.1228 H   0  0
   -9.0484  -28.9124   51.4053 H   0  0
  -10.3779  -28.9129   52.8627 H   0  0
   -7.3890  -26.7025   52.9263 H   0  0
   -5.1072  -26.0144   52.2242 H   0  0
   -1.8978  -26.5539   53.2444 H   0  0
   -3.1545  -25.6182   52.4204 H   0  0
   -1.1675  -24.8052   51.4407 H   0  0
   -0.3957  -26.3887   51.4397 H   0  0
  1  2  1  0
  2  3  1  0
  2  4  1  0
  4  5  2  0
  4  9  1  0
  5  6  1  0
  6  7  2  0
  7  8  1  0
  8  9  2  0
  9 10  1  0
 10 11  1  0
 10 19  1  0
 10 35  1  0
 11 12  2  0
 11 13  1  0
 13 14  1  0
 14 15  2  0
 14 18  1  0
 15 16  1  0
 16 17  2  0
 17 18  1  0
 19 20  1  0
 20 21  1  0
 21 22  1  0
 21 34  1  0
 22 23  2  0
 22 33  1  0
 23 24  1  0
 24 25  2  0
 25 26  1  0
 25 32  1  0
 26 27  1  0
 26 30  1  0
 26 31  1  0
 27 28  2  0
 27 29  1  0
 30 31  1  0
 32 33  2  0
 34 35  1  0
  1 36  1  0
  1 37  1  0
  1 38  1  0
  2 39  1  0
  3 40  1  0
  3 41  1  0
  3 42  1  0
  5 43  1  0
  6 44  1  0
  7 45  1  0
  8 46  1  0
 13 47  1  0
 15 48  1  0
 16 49  1  0
 19 50  1  0
 19 51  1  0
 20 52  1  0
 20 53  1  0
 23 54  1  0
 24 55  1  0
 29 56  1  0
 30 57  1  0
 30 58  1  0
 31 59  1  0
 31 60  1  0
 32 61  1  0
 33 62  1  0
 34 63  1  0
 34 64  1  0
 35 65  1  0
 35 66  1  0
M  END
> <Name>
Molecule

> <AbsoluteEnergy>
47.9229

> <Clean Energy>
221.807

> <ConfNumber>
5

> <MOL_NUMBER>
3

> <RelativeEnergy>
2.74103

> <POSE_NUMBER>
53

> <LibDockScore>
113.0655

> <HotSpots>
1.27,-23.52,47.59,A,27,6
-6.13,-22.12,49.98,A,41,16
-9.33,-29.92,51.19,A,52,31

$$$$
Molecule
  SciTegic05072616053D

 66 70  0  0  0  0            999 V2000
    0.5722  -25.9679   46.5440 C   0  0  0  1  0  0
   -0.1551  -24.7577   47.1654 C   0  0  0  1  0  0
    0.0256  -23.5066   46.2838 C   0  0  0  1  0  0
    0.2897  -24.5220   48.5928 C   0  0  0  1  0  0
    1.6711  -24.2952   48.7791 C   0  0  0  1  0  0
    2.2178  -24.1089   50.0512 C   0  0  0  1  0  0
    1.3817  -24.1198   51.1693 C   0  0  0  1  0  0
    0.0039  -24.2999   51.0046 C   0  0  0  1  0  0
   -0.5780  -24.5334   49.7361 C   0  0  0  1  0  0
   -2.0866  -24.7910   49.6496 C   0  0  0  1  0  0
   -2.6663  -24.3272   48.2992 C   0  0  0  1  0  0
   -3.2417  -25.1203   47.5833 O   0  0  0  1  0  0
   -2.5270  -23.0059   47.9053 N   0  0  0  1  0  0
   -3.3036  -22.3212   46.8396 C   0  0  0  1  0  0
   -4.4797  -22.7627   46.2454 C   0  0  0  1  0  0
   -4.7534  -21.7919   45.2841 C   0  0  0  1  0  0
   -3.8051  -20.8111   45.3351 N   0  0  0  1  0  0
   -2.9455  -21.1262   46.2787 O   0  0  0  1  0  0
   -2.9469  -24.0219   50.7401 C   0  0  0  1  0  0
   -2.9325  -24.5838   52.1961 C   0  0  0  1  0  0
   -3.1386  -26.0416   52.1345 N   0  0  0  1  0  0
   -4.2734  -26.6884   52.5761 C   0  0  0  1  0  0
   -5.5263  -26.1023   52.2883 C   0  0  0  1  0  0
   -6.6902  -26.8526   52.4606 C   0  0  0  1  0  0
   -6.6107  -28.1599   52.9642 C   0  0  0  1  0  0
   -7.8259  -29.0276   52.9287 C   0  0  0  1  0  0
   -7.7890  -29.7841   51.6134 C   0  0  0  1  0  0
   -6.7914  -30.4119   51.3321 O   0  0  0  1  0  0
   -8.8321  -29.6809   50.7841 O   0  0  0  1  0  0
   -9.1250  -28.4909   53.5037 C   0  0  0  1  0  0
   -8.4486  -29.6725   54.1567 C   0  0  0  1  0  0
   -5.3916  -28.6712   53.4347 C   0  0  0  1  0  0
   -4.2149  -27.9362   53.2362 C   0  0  0  1  0  0
   -2.1075  -26.7442   51.3548 C   0  0  0  1  0  0
   -2.3230  -26.3219   49.8879 C   0  0  0  1  0  0
    1.6336  -25.7368   46.4535 H   0  0
    0.1614  -26.1590   45.5526 H   0  0
    0.4385  -26.8470   47.1744 H   0  0
   -1.2217  -24.9789   47.2038 H   0  0
   -0.3831  -23.7074   45.2935 H   0  0
    1.0891  -23.2852   46.1943 H   0  0
   -0.4915  -22.6577   46.7310 H   0  0
    2.3269  -24.2648   47.9090 H   0  0
    3.2905  -23.9560   50.1701 H   0  0
    1.8007  -23.9885   52.1669 H   0  0
   -0.6419  -24.2590   51.8817 H   0  0
   -1.7900  -22.4233   48.4174 H   0  0
   -5.0542  -23.6595   46.4773 H   0  0
   -5.5977  -21.8124   44.5950 H   0  0
   -2.6113  -22.9853   50.7721 H   0  0
   -3.9817  -23.9874   50.3992 H   0  0
   -1.9702  -24.3699   52.6612 H   0  0
   -3.7349  -24.1253   52.7740 H   0  0
   -5.5833  -25.0728   51.9347 H   0  0
   -7.6591  -26.4240   52.2045 H   0  0
   -8.9401  -28.6523   50.6027 H   0  0
   -9.9842  -28.7985   52.9077 H   0  0
   -8.9634  -27.5726   54.0682 H   0  0
   -7.9265  -29.3834   55.0688 H   0  0
   -8.9464  -30.6095   53.9070 H   0  0
   -5.3601  -29.6313   53.9499 H   0  0
   -3.2598  -28.3251   53.5892 H   0  0
   -2.2357  -27.8223   51.4521 H   0  0
   -1.1158  -26.4369   51.6866 H   0  0
   -1.6426  -26.8898   49.2533 H   0  0
   -3.3420  -26.5734   49.5938 H   0  0
  1  2  1  0
  2  3  1  0
  2  4  1  0
  4  5  2  0
  4  9  1  0
  5  6  1  0
  6  7  2  0
  7  8  1  0
  8  9  2  0
  9 10  1  0
 10 11  1  0
 10 19  1  0
 10 35  1  0
 11 12  2  0
 11 13  1  0
 13 14  1  0
 14 15  2  0
 14 18  1  0
 15 16  1  0
 16 17  2  0
 17 18  1  0
 19 20  1  0
 20 21  1  0
 21 22  1  0
 21 34  1  0
 22 23  2  0
 22 33  1  0
 23 24  1  0
 24 25  2  0
 25 26  1  0
 25 32  1  0
 26 27  1  0
 26 30  1  0
 26 31  1  0
 27 28  2  0
 27 29  1  0
 30 31  1  0
 32 33  2  0
 34 35  1  0
  1 36  1  0
  1 37  1  0
  1 38  1  0
  2 39  1  0
  3 40  1  0
  3 41  1  0
  3 42  1  0
  5 43  1  0
  6 44  1  0
  7 45  1  0
  8 46  1  0
 13 47  1  0
 15 48  1  0
 16 49  1  0
 19 50  1  0
 19 51  1  0
 20 52  1  0
 20 53  1  0
 23 54  1  0
 24 55  1  0
 29 56  1  0
 30 57  1  0
 30 58  1  0
 31 59  1  0
 31 60  1  0
 32 61  1  0
 33 62  1  0
 34 63  1  0
 34 64  1  0
 35 65  1  0
 35 66  1  0
M  END
> <Name>
Molecule

> <AbsoluteEnergy>
57.7668

> <Clean Energy>
221.807

> <ConfNumber>
45

> <MOL_NUMBER>
3

> <RelativeEnergy>
12.5849

> <POSE_NUMBER>
54

> <LibDockScore>
112.9119

> <HotSpots>
1.87,-25.32,48.38,A,30,5
-3.53,-22.32,46.59,A,20,15
-8.73,-28.12,54.38,A,70,30

$$$$
Molecule
  SciTegic05072616053D

 66 70  0  0  0  0            999 V2000
   -3.0948  -24.4020   46.2892 C   0  0  0  1  0  0
   -2.2377  -25.6051   46.7426 C   0  0  0  1  0  0
   -1.8625  -26.5072   45.5502 C   0  0  0  1  0  0
   -1.0155  -25.1666   47.5243 C   0  0  0  1  0  0
    0.0260  -24.5590   46.7831 C   0  0  0  1  0  0
    1.2010  -24.1220   47.4023 C   0  0  0  1  0  0
    1.3584  -24.2844   48.7800 C   0  0  0  1  0  0
    0.3378  -24.8807   49.5377 C   0  0  0  1  0  0
   -0.8699  -25.3341   48.9436 C   0  0  0  1  0  0
   -1.9667  -25.9671   49.8192 C   0  0  0  1  0  0
   -3.3002  -25.2146   49.6489 C   0  0  0  1  0  0
   -4.2494  -25.7990   49.1899 O   0  0  0  1  0  0
   -3.4221  -23.8815   49.9922 N   0  0  0  1  0  0
   -4.7151  -23.1686   50.1102 C   0  0  0  1  0  0
   -5.9851  -23.7331   50.1036 C   0  0  0  1  0  0
   -6.8343  -22.6394   50.2096 C   0  0  0  1  0  0
   -6.1000  -21.4964   50.2851 N   0  0  0  1  0  0
   -4.8271  -21.8192   50.2318 O   0  0  0  1  0  0
   -2.0605  -27.4910   49.4952 C   0  0  0  1  0  0
   -3.1065  -28.2859   50.3026 C   0  0  0  1  0  0
   -3.0624  -28.0276   51.7743 N   0  0  0  1  0  0
   -3.3860  -29.0533   52.6609 C   0  0  0  1  0  0
   -4.2450  -30.0941   52.2359 C   0  0  0  1  0  0
   -4.5210  -31.1919   53.0696 C   0  0  0  1  0  0
   -3.9362  -31.2779   54.3438 C   0  0  0  1  0  0
   -4.1283  -32.5139   55.2037 C   0  0  0  1  0  0
   -4.8472  -32.3003   56.5319 C   0  0  0  1  0  0
   -5.8545  -32.9314   56.7709 O   0  0  0  1  0  0
   -4.3463  -31.4505   57.4313 O   0  0  0  1  0  0
   -3.0066  -33.5466   55.2086 C   0  0  0  1  0  0
   -4.3062  -33.8567   54.5113 C   0  0  0  1  0  0
   -3.1436  -30.2061   54.8048 C   0  0  0  1  0  0
   -2.8692  -29.1064   53.9721 C   0  0  0  1  0  0
   -2.7058  -26.6522   52.2397 C   0  0  0  1  0  0
   -1.6542  -25.9457   51.3501 C   0  0  0  1  0  0
   -4.0023  -24.7779   45.8167 H   0  0
   -2.5276  -23.8243   45.5593 H   0  0
   -3.3506  -23.7757   47.1438 H   0  0
   -2.8480  -26.2001   47.4220 H   0  0
   -1.3043  -25.9143   44.8257 H   0  0
   -2.7789  -26.8678   45.0831 H   0  0
   -1.2588  -27.3497   45.8877 H   0  0
   -0.0903  -24.4290   45.7071 H   0  0
    1.9905  -23.6567   46.8121 H   0  0
    2.2736  -23.9483   49.2674 H   0  0
    0.4763  -24.9990   50.6124 H   0  0
   -2.5259  -23.3295   50.1849 H   0  0
   -6.2521  -24.7875   50.0320 H   0  0
   -7.9230  -22.6890   50.2293 H   0  0
   -2.2821  -27.6070   48.4343 H   0  0
   -1.0820  -27.9423   49.6594 H   0  0
   -4.1010  -28.0360   49.9329 H   0  0
   -2.9515  -29.3508   50.1294 H   0  0
   -4.6999  -30.0440   51.2466 H   0  0
   -5.1915  -31.9795   52.7258 H   0  0
   -4.2626  -30.5386   56.9175 H   0  0
   -2.9347  -34.0533   56.1710 H   0  0
   -2.2210  -33.2851   54.4997 H   0  0
   -4.2149  -33.7639   53.4291 H   0  0
   -4.9288  -34.5303   55.1002 H   0  0
   -2.7396  -30.2304   55.8169 H   0  0
   -2.2519  -28.2883   54.3432 H   0  0
   -2.3215  -26.7133   53.2579 H   0  0
   -3.6103  -26.0445   52.2659 H   0  0
   -1.5637  -24.9091   51.6748 H   0  0
   -0.6852  -26.4167   51.5155 H   0  0
  1  2  1  0
  2  3  1  0
  2  4  1  0
  4  5  2  0
  4  9  1  0
  5  6  1  0
  6  7  2  0
  7  8  1  0
  8  9  2  0
  9 10  1  0
 10 11  1  0
 10 19  1  0
 10 35  1  0
 11 12  2  0
 11 13  1  0
 13 14  1  0
 14 15  2  0
 14 18  1  0
 15 16  1  0
 16 17  2  0
 17 18  1  0
 19 20  1  0
 20 21  1  0
 21 22  1  0
 21 34  1  0
 22 23  2  0
 22 33  1  0
 23 24  1  0
 24 25  2  0
 25 26  1  0
 25 32  1  0
 26 27  1  0
 26 30  1  0
 26 31  1  0
 27 28  2  0
 27 29  1  0
 30 31  1  0
 32 33  2  0
 34 35  1  0
  1 36  1  0
  1 37  1  0
  1 38  1  0
  2 39  1  0
  3 40  1  0
  3 41  1  0
  3 42  1  0
  5 43  1  0
  6 44  1  0
  7 45  1  0
  8 46  1  0
 13 47  1  0
 15 48  1  0
 16 49  1  0
 19 50  1  0
 19 51  1  0
 20 52  1  0
 20 53  1  0
 23 54  1  0
 24 55  1  0
 29 56  1  0
 30 57  1  0
 30 58  1  0
 31 59  1  0
 31 60  1  0
 32 61  1  0
 33 62  1  0
 34 63  1  0
 34 64  1  0
 35 65  1  0
 35 66  1  0
M  END
> <Name>
Molecule

> <AbsoluteEnergy>
48.7171

> <Clean Energy>
221.807

> <ConfNumber>
7

> <MOL_NUMBER>
3

> <RelativeEnergy>
3.53523

> <POSE_NUMBER>
55

> <LibDockScore>
111.321

> <HotSpots>
-2.93,-26.32,45.98,A,15,3
-6.53,-23.32,50.38,A,45,15
-4.33,-31.92,57.78,P,73,29

$$$$
Molecule
  SciTegic05072616053D

 66 70  0  0  0  0            999 V2000
   -0.8249  -26.5738   54.2802 C   0  0  0  1  0  0
   -1.3334  -25.9059   52.9877 C   0  0  0  1  0  0
   -0.1784  -25.2670   52.1918 C   0  0  0  1  0  0
   -2.1415  -26.8622   52.1416 C   0  0  0  1  0  0
   -2.0711  -28.2301   52.4955 C   0  0  0  1  0  0
   -2.7336  -29.2100   51.7510 C   0  0  0  1  0  0
   -3.4705  -28.8401   50.6264 C   0  0  0  1  0  0
   -3.5635  -27.4898   50.2659 C   0  0  0  1  0  0
   -2.9482  -26.4617   51.0271 C   0  0  0  1  0  0
   -3.1607  -24.9818   50.6386 C   0  0  0  1  0  0
   -1.9592  -24.4839   49.8322 C   0  0  0  1  0  0
   -1.3585  -23.4916   50.1759 O   0  0  0  1  0  0
   -1.5723  -25.1862   48.7080 N   0  0  0  1  0  0
   -0.2773  -25.0464   48.0163 C   0  0  0  1  0  0
    0.8486  -24.3564   48.4468 C   0  0  0  1  0  0
    1.7703  -24.5626   47.4232 C   0  0  0  1  0  0
    1.2066  -25.3314   46.4488 N   0  0  0  1  0  0
   -0.0236  -25.6191   46.8094 O   0  0  0  1  0  0
   -4.4181  -24.6902   49.7243 C   0  0  0  1  0  0
   -5.7610  -24.5007   50.4812 C   0  0  0  1  0  0
   -5.7087  -25.2055   51.7898 N   0  0  0  1  0  0
   -6.4083  -26.3813   52.0723 C   0  0  0  1  0  0
   -7.6215  -26.6822   51.4087 C   0  0  0  1  0  0
   -8.1930  -27.9576   51.5043 C   0  0  0  1  0  0
   -7.5669  -28.9503   52.2718 C   0  0  0  1  0  0
   -8.0655  -30.3705   52.1911 C   0  0  0  1  0  0
   -6.9294  -31.3082   51.7918 C   0  0  0  1  0  0
   -7.0317  -31.9695   50.7854 O   0  0  0  1  0  0
   -5.8275  -31.3707   52.5417 O   0  0  0  1  0  0
   -9.4721  -30.6394   51.6824 C   0  0  0  1  0  0
   -9.1409  -30.8817   53.1358 C   0  0  0  1  0  0
   -6.4618  -28.6159   53.0721 C   0  0  0  1  0  0
   -5.8962  -27.3337   52.9850 C   0  0  0  1  0  0
   -4.6909  -24.6203   52.7158 C   0  0  0  1  0  0
   -3.4548  -24.1219   51.9186 C   0  0  0  1  0  0
   -0.3340  -25.8179   54.8931 H   0  0
   -0.0979  -27.3408   54.0133 H   0  0
   -1.6545  -27.0195   54.8290 H   0  0
   -2.0064  -25.1004   53.2814 H   0  0
    0.5436  -26.0441   51.9410 H   0  0
    0.3075  -24.5212   52.8209 H   0  0
   -0.5566  -24.8002   51.2823 H   0  0
   -1.4878  -28.5261   53.3674 H   0  0
   -2.6746  -30.2572   52.0477 H   0  0
   -3.9733  -29.6005   50.0289 H   0  0
   -4.1263  -27.2198   49.3723 H   0  0
   -2.2700  -25.8904   48.3052 H   0  0
    0.9798  -23.7881   49.3676 H   0  0
    2.7867  -24.1694   47.4042 H   0  0
   -4.2215  -23.7931   49.1372 H   0  0
   -4.5326  -25.5105   49.0157 H   0  0
   -5.9354  -23.4380   50.6495 H   0  0
   -6.5759  -24.9087   49.8833 H   0  0
   -8.1169  -25.9128   50.8165 H   0  0
   -9.1241  -28.1783   50.9823 H   0  0
   -6.1723  -31.6134   53.5033 H   0  0
   -9.5233  -31.5722   51.1209 H   0  0
  -10.0318  -29.7140   51.5464 H   0  0
   -9.5248  -30.0856   53.7737 H   0  0
   -9.0148  -31.9434   53.3479 H   0  0
   -6.0439  -29.3510   53.7599 H   0  0
   -5.0552  -27.0696   53.6261 H   0  0
   -5.1333  -23.7830   53.2556 H   0  0
   -4.3756  -25.3785   53.4326 H   0  0
   -2.5812  -24.1456   52.5700 H   0  0
   -3.6206  -23.0865   51.6208 H   0  0
  1  2  1  0
  2  3  1  0
  2  4  1  0
  4  5  2  0
  4  9  1  0
  5  6  1  0
  6  7  2  0
  7  8  1  0
  8  9  2  0
  9 10  1  0
 10 11  1  0
 10 19  1  0
 10 35  1  0
 11 12  2  0
 11 13  1  0
 13 14  1  0
 14 15  2  0
 14 18  1  0
 15 16  1  0
 16 17  2  0
 17 18  1  0
 19 20  1  0
 20 21  1  0
 21 22  1  0
 21 34  1  0
 22 23  2  0
 22 33  1  0
 23 24  1  0
 24 25  2  0
 25 26  1  0
 25 32  1  0
 26 27  1  0
 26 30  1  0
 26 31  1  0
 27 28  2  0
 27 29  1  0
 30 31  1  0
 32 33  2  0
 34 35  1  0
  1 36  1  0
  1 37  1  0
  1 38  1  0
  2 39  1  0
  3 40  1  0
  3 41  1  0
  3 42  1  0
  5 43  1  0
  6 44  1  0
  7 45  1  0
  8 46  1  0
 13 47  1  0
 15 48  1  0
 16 49  1  0
 19 50  1  0
 19 51  1  0
 20 52  1  0
 20 53  1  0
 23 54  1  0
 24 55  1  0
 29 56  1  0
 30 57  1  0
 30 58  1  0
 31 59  1  0
 31 60  1  0
 32 61  1  0
 33 62  1  0
 34 63  1  0
 34 64  1  0
 35 65  1  0
 35 66  1  0
M  END
> <Name>
Molecule

> <AbsoluteEnergy>
55.2053

> <Clean Energy>
221.807

> <ConfNumber>
34

> <MOL_NUMBER>
3

> <RelativeEnergy>
10.0235

> <POSE_NUMBER>
56

> <LibDockScore>
109.706

> <HotSpots>
2.47,-25.32,48.78,P,32,17
-5.33,-24.12,49.78,A,36,20
-9.53,-30.12,52.78,A,62,31

$$$$
Molecule
  SciTegic05072616053D

 66 70  0  0  0  0            999 V2000
   -5.6485  -22.8187   49.3804 C   0  0  0  1  0  0
   -4.2073  -22.8906   49.9175 C   0  0  0  1  0  0
   -3.8636  -21.6653   50.7852 C   0  0  0  1  0  0
   -3.1962  -23.0940   48.8113 C   0  0  0  1  0  0
   -3.0797  -22.0566   47.8588 C   0  0  0  1  0  0
   -2.1749  -22.1458   46.7954 C   0  0  0  1  0  0
   -1.3678  -23.2778   46.6664 C   0  0  0  1  0  0
   -1.4664  -24.3183   47.5989 C   0  0  0  1  0  0
   -2.3728  -24.2593   48.6895 C   0  0  0  1  0  0
   -2.4414  -25.4237   49.6883 C   0  0  0  1  0  0
   -1.6359  -25.1123   50.9597 C   0  0  0  1  0  0
   -2.2140  -24.9076   52.0023 O   0  0  0  1  0  0
   -0.2553  -25.0685   50.9204 N   0  0  0  1  0  0
    0.5994  -24.5568   52.0131 C   0  0  0  1  0  0
    0.1999  -23.8385   53.1350 C   0  0  0  1  0  0
    1.3877  -23.6144   53.8250 C   0  0  0  1  0  0
    2.4249  -24.1721   53.1402 N   0  0  0  1  0  0
    1.9474  -24.7370   52.0532 O   0  0  0  1  0  0
   -3.9451  -25.7479   50.0090 C   0  0  0  1  0  0
   -4.3256  -27.2435   50.1026 C   0  0  0  1  0  0
   -3.2584  -28.0750   50.7379 N   0  0  0  1  0  0
   -3.5182  -28.9725   51.7781 C   0  0  0  1  0  0
   -4.7568  -29.6527   51.8673 C   0  0  0  1  0  0
   -5.0246  -30.5332   52.9297 C   0  0  0  1  0  0
   -4.0548  -30.7626   53.9189 C   0  0  0  1  0  0
   -4.3427  -31.6955   55.0701 C   0  0  0  1  0  0
   -4.8250  -30.9617   56.3096 C   0  0  0  1  0  0
   -4.1268  -30.9570   57.2981 O   0  0  0  1  0  0
   -6.0018  -30.3387   56.2765 O   0  0  0  1  0  0
   -4.8982  -33.0848   54.7948 C   0  0  0  1  0  0
   -3.4715  -32.9280   55.2603 C   0  0  0  1  0  0
   -2.8130  -30.1132   53.8335 C   0  0  0  1  0  0
   -2.5468  -29.2298   52.7754 C   0  0  0  1  0  0
   -1.8827  -27.8966   50.1809 C   0  0  0  1  0  0
   -1.8158  -26.7514   49.1493 C   0  0  0  1  0  0
   -5.7527  -21.9105   48.7868 H   0  0
   -6.3325  -22.7681   50.2276 H   0  0
   -5.8717  -23.6936   48.7698 H   0  0
   -4.1522  -23.7697   50.5596 H   0  0
   -4.5627  -21.6245   51.6205 H   0  0
   -3.9829  -20.7668   50.1797 H   0  0
   -2.8407  -21.7352   51.1552 H   0  0
   -3.7067  -21.1701   47.9544 H   0  0
   -2.1004  -21.3350   46.0707 H   0  0
   -0.6609  -23.3518   45.8400 H   0  0
   -0.8305  -25.1961   47.4840 H   0  0
    0.2291  -25.4302   50.0375 H   0  0
   -0.8072  -23.5247   53.4095 H   0  0
    1.4747  -23.0754   54.7684 H   0  0
   -4.5694  -25.2826   49.2462 H   0  0
   -4.2079  -25.2676   50.9515 H   0  0
   -4.5208  -27.6248   49.1003 H   0  0
   -5.2426  -27.3411   50.6837 H   0  0
   -5.5143  -29.4911   51.1003 H   0  0
   -5.9882  -31.0396   52.9859 H   0  0
   -6.6951  -31.0793   56.0059 H   0  0
   -4.9524  -33.2893   53.7255 H   0  0
   -5.5500  -33.4213   55.6010 H   0  0
   -3.3621  -33.1817   56.3147 H   0  0
   -2.7647  -33.0480   54.4393 H   0  0
   -2.0520  -30.2958   54.5923 H   0  0
   -1.5774  -28.7344   52.7208 H   0  0
   -1.5677  -28.8245   49.7036 H   0  0
   -1.1932  -27.6814   50.9972 H   0  0
   -0.7736  -26.5731   48.8843 H   0  0
   -2.3472  -27.0548   48.2473 H   0  0
  1  2  1  0
  2  3  1  0
  2  4  1  0
  4  5  2  0
  4  9  1  0
  5  6  1  0
  6  7  2  0
  7  8  1  0
  8  9  2  0
  9 10  1  0
 10 11  1  0
 10 19  1  0
 10 35  1  0
 11 12  2  0
 11 13  1  0
 13 14  1  0
 14 15  2  0
 14 18  1  0
 15 16  1  0
 16 17  2  0
 17 18  1  0
 19 20  1  0
 20 21  1  0
 21 22  1  0
 21 34  1  0
 22 23  2  0
 22 33  1  0
 23 24  1  0
 24 25  2  0
 25 26  1  0
 25 32  1  0
 26 27  1  0
 26 30  1  0
 26 31  1  0
 27 28  2  0
 27 29  1  0
 30 31  1  0
 32 33  2  0
 34 35  1  0
  1 36  1  0
  1 37  1  0
  1 38  1  0
  2 39  1  0
  3 40  1  0
  3 41  1  0
  3 42  1  0
  5 43  1  0
  6 44  1  0
  7 45  1  0
  8 46  1  0
 13 47  1  0
 15 48  1  0
 16 49  1  0
 19 50  1  0
 19 51  1  0
 20 52  1  0
 20 53  1  0
 23 54  1  0
 24 55  1  0
 29 56  1  0
 30 57  1  0
 30 58  1  0
 31 59  1  0
 31 60  1  0
 32 61  1  0
 33 62  1  0
 34 63  1  0
 34 64  1  0
 35 65  1  0
 35 66  1  0
M  END
> <Name>
Molecule

> <AbsoluteEnergy>
47.5628

> <Clean Energy>
221.807

> <ConfNumber>
2

> <MOL_NUMBER>
3

> <RelativeEnergy>
2.38089

> <POSE_NUMBER>
57

> <LibDockScore>
109.0197

> <HotSpots>
-4.73,-22.32,50.38,A,46,1
-2.53,-22.32,48.19,A,29,5
-4.13,-30.52,57.38,P,71,28

$$$$
Molecule
  SciTegic05072616053D

 66 70  0  0  0  0            999 V2000
   -1.0989  -23.1263   47.2671 C   0  0  0  1  0  0
   -0.8845  -24.5213   47.8889 C   0  0  0  1  0  0
   -0.5768  -25.5678   46.7998 C   0  0  0  1  0  0
    0.1785  -24.4840   48.9645 C   0  0  0  1  0  0
    1.4945  -24.1838   48.5442 C   0  0  0  1  0  0
    2.5469  -24.0871   49.4610 C   0  0  0  1  0  0
    2.2958  -24.2757   50.8206 C   0  0  0  1  0  0
    1.0005  -24.5835   51.2591 C   0  0  0  1  0  0
   -0.0842  -24.7269   50.3537 C   0  0  0  1  0  0
   -1.4788  -25.1369   50.8683 C   0  0  0  1  0  0
   -2.5132  -24.0458   50.5265 C   0  0  0  1  0  0
   -2.1466  -22.9743   50.0901 O   0  0  0  1  0  0
   -3.8631  -24.2706   50.7032 N   0  0  0  1  0  0
   -4.9007  -23.2574   50.4364 C   0  0  0  1  0  0
   -6.2552  -23.4529   50.6592 C   0  0  0  1  0  0
   -6.8324  -22.2522   50.2561 C   0  0  0  1  0  0
   -5.8579  -21.4005   49.8234 N   0  0  0  1  0  0
   -4.6972  -22.0068   49.9393 O   0  0  0  1  0  0
   -1.5259  -25.2856   52.4300 C   0  0  0  1  0  0
   -2.8019  -25.9361   53.0025 C   0  0  0  1  0  0
   -3.1498  -27.2074   52.3020 N   0  0  0  1  0  0
   -4.3033  -27.9248   52.6163 C   0  0  0  1  0  0
   -5.5108  -27.2556   52.9209 C   0  0  0  1  0  0
   -6.6687  -27.9763   53.2631 C   0  0  0  1  0  0
   -6.6479  -29.3817   53.3003 C   0  0  0  1  0  0
   -7.8947  -30.1518   53.6916 C   0  0  0  1  0  0
   -8.8048  -30.5025   52.5138 C   0  0  0  1  0  0
   -9.5057  -31.4892   52.5757 O   0  0  0  1  0  0
   -8.8170  -29.7085   51.4406 O   0  0  0  1  0  0
   -7.8251  -31.1201   54.8660 C   0  0  0  1  0  0
   -8.5552  -29.8075   55.0185 C   0  0  0  1  0  0
   -5.4597  -30.0586   52.9716 C   0  0  0  1  0  0
   -4.2983  -29.3408   52.6387 C   0  0  0  1  0  0
   -2.1855  -27.6637   51.2588 C   0  0  0  1  0  0
   -1.8457  -26.5419   50.2507 C   0  0  0  1  0  0
   -1.9314  -23.1771   46.5653 H   0  0
   -0.1960  -22.8374   46.7292 H   0  0
   -1.3154  -22.3966   48.0474 H   0  0
   -1.8123  -24.8255   48.3735 H   0  0
    0.3232  -25.2655   46.2644 H   0  0
   -1.4122  -25.6052   46.1006 H   0  0
   -0.4276  -26.5481   47.2524 H   0  0
    1.6933  -24.0244   47.4844 H   0  0
    3.5567  -23.8658   49.1154 H   0  0
    3.1075  -24.1836   51.5422 H   0  0
    0.8206  -24.7166   52.3259 H   0  0
   -4.1740  -25.2328   51.0530 H   0  0
   -6.7512  -24.3384   51.0565 H   0  0
   -7.8985  -22.0269   50.2820 H   0  0
   -1.4112  -24.2983   52.8774 H   0  0
   -0.6654  -25.8737   52.7489 H   0  0
   -2.6521  -26.1437   54.0620 H   0  0
   -3.6336  -25.2383   52.9057 H   0  0
   -5.5447  -26.1666   52.8901 H   0  0
   -7.5884  -27.4419   53.5011 H   0  0
   -7.8174  -29.6673   51.1219 H   0  0
   -6.8474  -31.0950   55.3472 H   0  0
   -8.5166  -31.9529   54.7380 H   0  0
   -9.6361  -29.9408   54.9738 H   0  0
   -7.9669  -29.0828   55.5813 H   0  0
   -5.4395  -31.1484   52.9751 H   0  0
   -3.3830  -29.8802   52.3949 H   0  0
   -2.6150  -28.5085   50.7203 H   0  0
   -1.2680  -27.9975   51.7433 H   0  0
   -1.0134  -26.8767   49.6316 H   0  0
   -2.6951  -26.4137   49.5797 H   0  0
  1  2  1  0
  2  3  1  0
  2  4  1  0
  4  5  2  0
  4  9  1  0
  5  6  1  0
  6  7  2  0
  7  8  1  0
  8  9  2  0
  9 10  1  0
 10 11  1  0
 10 19  1  0
 10 35  1  0
 11 12  2  0
 11 13  1  0
 13 14  1  0
 14 15  2  0
 14 18  1  0
 15 16  1  0
 16 17  2  0
 17 18  1  0
 19 20  1  0
 20 21  1  0
 21 22  1  0
 21 34  1  0
 22 23  2  0
 22 33  1  0
 23 24  1  0
 24 25  2  0
 25 26  1  0
 25 32  1  0
 26 27  1  0
 26 30  1  0
 26 31  1  0
 27 28  2  0
 27 29  1  0
 30 31  1  0
 32 33  2  0
 34 35  1  0
  1 36  1  0
  1 37  1  0
  1 38  1  0
  2 39  1  0
  3 40  1  0
  3 41  1  0
  3 42  1  0
  5 43  1  0
  6 44  1  0
  7 45  1  0
  8 46  1  0
 13 47  1  0
 15 48  1  0
 16 49  1  0
 19 50  1  0
 19 51  1  0
 20 52  1  0
 20 53  1  0
 23 54  1  0
 24 55  1  0
 29 56  1  0
 30 57  1  0
 30 58  1  0
 31 59  1  0
 31 60  1  0
 32 61  1  0
 33 62  1  0
 34 63  1  0
 34 64  1  0
 35 65  1  0
 35 66  1  0
M  END
> <Name>
Molecule

> <AbsoluteEnergy>
51.2165

> <Clean Energy>
221.807

> <ConfNumber>
15

> <MOL_NUMBER>
3

> <RelativeEnergy>
6.03466

> <POSE_NUMBER>
58

> <LibDockScore>
108.9231

> <HotSpots>
0.27,-24.92,46.38,A,19,3
1.67,-24.32,50.98,A,50,8
-6.13,-22.12,49.98,A,41,16

$$$$
Molecule
  SciTegic05072616053D

 66 70  0  0  0  0            999 V2000
   -2.0487  -25.6328   46.2231 C   0  0  0  1  0  0
   -2.0970  -24.6814   47.4329 C   0  0  0  1  0  0
   -2.7118  -23.3190   47.0637 C   0  0  0  1  0  0
   -0.7464  -24.5345   48.0957 C   0  0  0  1  0  0
    0.2792  -23.9475   47.3233 C   0  0  0  1  0  0
    1.5688  -23.7724   47.8387 C   0  0  0  1  0  0
    1.8549  -24.1879   49.1414 C   0  0  0  1  0  0
    0.8524  -24.7700   49.9281 C   0  0  0  1  0  0
   -0.4664  -24.9528   49.4374 C   0  0  0  1  0  0
   -1.5402  -25.5791   50.3364 C   0  0  0  1  0  0
   -2.6818  -24.5653   50.5363 C   0  0  0  1  0  0
   -2.4160  -23.4517   50.9310 O   0  0  0  1  0  0
   -3.9985  -24.8895   50.2823 N   0  0  0  1  0  0
   -5.0782  -23.8920   50.1704 C   0  0  0  1  0  0
   -6.4186  -24.1731   50.3869 C   0  0  0  1  0  0
   -7.0466  -22.9467   50.2022 C   0  0  0  1  0  0
   -6.1139  -22.0013   49.8878 N   0  0  0  1  0  0
   -4.9293  -22.5741   49.8717 O   0  0  0  1  0  0
   -1.0501  -25.8687   51.7953 C   0  0  0  1  0  0
   -2.1416  -26.4780   52.7099 C   0  0  0  1  0  0
   -2.9691  -27.4859   51.9808 N   0  0  0  1  0  0
   -4.2800  -27.8073   52.3393 C   0  0  0  1  0  0
   -4.6519  -29.1452   52.6039 C   0  0  0  1  0  0
   -5.9886  -29.4809   52.8772 C   0  0  0  1  0  0
   -6.9789  -28.4831   52.9046 C   0  0  0  1  0  0
   -8.4303  -28.8441   53.1397 C   0  0  0  1  0  0
   -9.1682  -29.2746   51.8638 C   0  0  0  1  0  0
   -8.7529  -28.9133   50.7853 O   0  0  0  1  0  0
  -10.2627  -30.0373   51.9397 O   0  0  0  1  0  0
   -8.8009  -29.4745   54.4764 C   0  0  0  1  0  0
   -9.2145  -28.0526   54.1754 C   0  0  0  1  0  0
   -6.6136  -27.1426   52.6965 C   0  0  0  1  0  0
   -5.2792  -26.8079   52.4246 C   0  0  0  1  0  0
   -2.3064  -28.0778   50.7855 C   0  0  0  1  0  0
   -1.9419  -26.9857   49.7459 C   0  0  0  1  0  0
   -1.4542  -25.1646   45.4386 H   0  0
   -3.0650  -25.7782   45.8568 H   0  0
   -1.6106  -26.5898   46.5065 H   0  0
   -2.7569  -25.1388   48.1700 H   0  0
   -3.7220  -23.4855   46.6897 H   0  0
   -2.1112  -22.8720   46.2715 H   0  0
   -2.7362  -22.6623   47.9333 H   0  0
    0.0625  -23.6241   46.3052 H   0  0
    2.3458  -23.3142   47.2267 H   0  0
    2.8588  -24.0591   49.5460 H   0  0
    1.0914  -25.0904   50.9422 H   0  0
   -4.2500  -25.9223   50.1597 H   0  0
   -6.8730  -25.1305   50.6419 H   0  0
   -8.1179  -22.7679   50.2942 H   0  0
   -0.6973  -24.9387   52.2410 H   0  0
   -0.2037  -26.5542   51.7535 H   0  0
   -1.6658  -26.9579   53.5651 H   0  0
   -2.7897  -25.6816   53.0758 H   0  0
   -3.8919  -29.9265   52.5958 H   0  0
   -6.2591  -30.5193   53.0688 H   0  0
  -10.9118  -29.5011   52.5672 H   0  0
   -7.9463  -29.5103   55.1521 H   0  0
   -9.6364  -30.1669   54.3731 H   0  0
  -10.2708  -27.9879   53.9141 H   0  0
   -8.5805  -27.3316   54.6914 H   0  0
   -7.3703  -26.3597   52.7466 H   0  0
   -5.0072  -25.7628   52.2767 H   0  0
   -2.9776  -28.8021   50.3240 H   0  0
   -1.3981  -28.5933   51.0975 H   0  0
   -1.1188  -27.3537   49.1334 H   0  0
   -2.7905  -26.8508   49.0753 H   0  0
  1  2  1  0
  2  3  1  0
  2  4  1  0
  4  5  2  0
  4  9  1  0
  5  6  1  0
  6  7  2  0
  7  8  1  0
  8  9  2  0
  9 10  1  0
 10 11  1  0
 10 19  1  0
 10 35  1  0
 11 12  2  0
 11 13  1  0
 13 14  1  0
 14 15  2  0
 14 18  1  0
 15 16  1  0
 16 17  2  0
 17 18  1  0
 19 20  1  0
 20 21  1  0
 21 22  1  0
 21 34  1  0
 22 23  2  0
 22 33  1  0
 23 24  1  0
 24 25  2  0
 25 26  1  0
 25 32  1  0
 26 27  1  0
 26 30  1  0
 26 31  1  0
 27 28  2  0
 27 29  1  0
 30 31  1  0
 32 33  2  0
 34 35  1  0
  1 36  1  0
  1 37  1  0
  1 38  1  0
  2 39  1  0
  3 40  1  0
  3 41  1  0
  3 42  1  0
  5 43  1  0
  6 44  1  0
  7 45  1  0
  8 46  1  0
 13 47  1  0
 15 48  1  0
 16 49  1  0
 19 50  1  0
 19 51  1  0
 20 52  1  0
 20 53  1  0
 23 54  1  0
 24 55  1  0
 29 56  1  0
 30 57  1  0
 30 58  1  0
 31 59  1  0
 31 60  1  0
 32 61  1  0
 33 62  1  0
 34 63  1  0
 34 64  1  0
 35 65  1  0
 35 66  1  0
M  END
> <Name>
Molecule

> <AbsoluteEnergy>
53.2308

> <Clean Energy>
221.807

> <ConfNumber>
23

> <MOL_NUMBER>
3

> <RelativeEnergy>
8.04895

> <POSE_NUMBER>
59

> <LibDockScore>
108.6791

> <HotSpots>
1.67,-24.32,50.98,A,50,7
-7.33,-24.12,50.38,A,44,16
-9.53,-30.12,52.78,A,62,31

$$$$
Molecule
  SciTegic05072616053D

 66 70  0  0  0  0            999 V2000
    1.2887  -24.5815   52.0313 C   0  0  0  1  0  0
   -0.1676  -24.2547   52.4169 C   0  0  0  1  0  0
   -0.2476  -23.5514   53.7856 C   0  0  0  1  0  0
   -1.0535  -25.4795   52.3569 C   0  0  0  1  0  0
   -0.7706  -26.4989   53.2928 C   0  0  0  1  0  0
   -1.5051  -27.6881   53.3157 C   0  0  0  1  0  0
   -2.5427  -27.8767   52.4006 C   0  0  0  1  0  0
   -2.8515  -26.8711   51.4734 C   0  0  0  1  0  0
   -2.1271  -25.6528   51.4217 C   0  0  0  1  0  0
   -2.4927  -24.5821   50.3749 C   0  0  0  1  0  0
   -1.2426  -24.2516   49.5535 C   0  0  0  1  0  0
   -0.9001  -23.1086   49.3547 O   0  0  0  1  0  0
   -0.5201  -25.3101   49.0419 N   0  0  0  1  0  0
    0.5498  -25.2286   48.0360 C   0  0  0  1  0  0
    0.9635  -24.1206   47.3098 C   0  0  0  1  0  0
    1.9997  -24.6193   46.5244 C   0  0  0  1  0  0
    2.1714  -25.9480   46.7855 N   0  0  0  1  0  0
    1.2991  -26.3057   47.6956 O   0  0  0  1  0  0
   -3.5450  -25.0184   49.2769 C   0  0  0  1  0  0
   -5.0341  -24.7893   49.6270 C   0  0  0  1  0  0
   -5.2258  -24.8026   51.0958 N   0  0  0  1  0  0
   -5.9683  -25.8004   51.7175 C   0  0  0  1  0  0
   -5.4149  -26.5551   52.7717 C   0  0  0  1  0  0
   -6.1000  -27.6601   53.2929 C   0  0  0  1  0  0
   -7.3673  -28.0321   52.7933 C   0  0  0  1  0  0
   -8.0520  -29.3026   53.2988 C   0  0  0  1  0  0
   -9.2865  -29.7499   52.5117 C   0  0  0  1  0  0
   -9.2257  -29.7612   51.3026 O   0  0  0  1  0  0
  -10.3952  -30.1185   53.1620 O   0  0  0  1  0  0
   -7.1614  -30.4464   53.7724 C   0  0  0  1  0  0
   -7.9917  -29.6738   54.7724 C   0  0  0  1  0  0
   -7.9634  -27.2122   51.8115 C   0  0  0  1  0  0
   -7.2754  -26.1078   51.2836 C   0  0  0  1  0  0
   -4.4735  -23.7349   51.8240 C   0  0  0  1  0  0
   -3.1674  -23.3576   51.0747 C   0  0  0  1  0  0
    1.7144  -25.2277   52.7990 H   0  0
    1.8559  -23.6513   51.9972 H   0  0
    1.3238  -25.0779   51.0615 H   0  0
   -0.5487  -23.5535   51.6745 H   0  0
    0.3325  -22.6299   53.7368 H   0  0
    0.1910  -24.2062   54.5385 H   0  0
   -1.2840  -23.3292   54.0397 H   0  0
    0.0364  -26.3555   54.0114 H   0  0
   -1.2691  -28.4640   54.0440 H   0  0
   -3.1127  -28.8057   52.4070 H   0  0
   -3.6712  -27.0301   50.7728 H   0  0
   -0.7616  -26.2843   49.4128 H   0  0
    0.5715  -23.1042   47.3456 H   0  0
    2.5838  -24.0380   45.8109 H   0  0
   -3.3229  -24.4841   48.3532 H   0  0
   -3.4019  -26.0771   49.0605 H   0  0
   -5.3546  -23.8259   49.2304 H   0  0
   -5.6375  -25.5781   49.1778 H   0  0
   -4.4455  -26.2764   53.1848 H   0  0
   -5.6480  -28.2417   54.0964 H   0  0
  -10.6342  -29.2946   53.7675 H   0  0
   -6.1132  -30.1493   53.8053 H   0  0
   -7.6040  -31.4165   53.5462 H   0  0
   -8.8741  -30.2346   55.0805 H   0  0
   -7.3846  -28.9671   55.3382 H   0  0
   -8.9696  -27.4388   51.4589 H   0  0
   -7.7556  -25.4819   50.5314 H   0  0
   -5.1036  -22.8501   51.9143 H   0  0
   -4.2235  -24.0893   52.8240 H   0  0
   -2.4644  -22.9234   51.7855 H   0  0
   -3.3960  -22.6005   50.3246 H   0  0
  1  2  1  0
  2  3  1  0
  2  4  1  0
  4  5  2  0
  4  9  1  0
  5  6  1  0
  6  7  2  0
  7  8  1  0
  8  9  2  0
  9 10  1  0
 10 11  1  0
 10 19  1  0
 10 35  1  0
 11 12  2  0
 11 13  1  0
 13 14  1  0
 14 15  2  0
 14 18  1  0
 15 16  1  0
 16 17  2  0
 17 18  1  0
 19 20  1  0
 20 21  1  0
 21 22  1  0
 21 34  1  0
 22 23  2  0
 22 33  1  0
 23 24  1  0
 24 25  2  0
 25 26  1  0
 25 32  1  0
 26 27  1  0
 26 30  1  0
 26 31  1  0
 27 28  2  0
 27 29  1  0
 30 31  1  0
 32 33  2  0
 34 35  1  0
  1 36  1  0
  1 37  1  0
  1 38  1  0
  2 39  1  0
  3 40  1  0
  3 41  1  0
  3 42  1  0
  5 43  1  0
  6 44  1  0
  7 45  1  0
  8 46  1  0
 13 47  1  0
 15 48  1  0
 16 49  1  0
 19 50  1  0
 19 51  1  0
 20 52  1  0
 20 53  1  0
 23 54  1  0
 24 55  1  0
 29 56  1  0
 30 57  1  0
 30 58  1  0
 31 59  1  0
 31 60  1  0
 32 61  1  0
 33 62  1  0
 34 63  1  0
 34 64  1  0
 35 65  1  0
 35 66  1  0
M  END
> <Name>
Molecule

> <AbsoluteEnergy>
58.9415

> <Clean Energy>
221.807

> <ConfNumber>
54

> <MOL_NUMBER>
3

> <RelativeEnergy>
13.7596

> <POSE_NUMBER>
60

> <LibDockScore>
108.3063

> <HotSpots>
0.87,-24.32,52.78,A,63,1
1.27,-23.52,47.59,A,27,16
-7.93,-28.32,52.38,A,59,32

$$$$
Molecule
  SciTegic05072616053D

 66 70  0  0  0  0            999 V2000
    1.2605  -24.4615   51.9605 C   0  0  0  1  0  0
   -0.1889  -24.1696   52.3970 C   0  0  0  1  0  0
   -0.2390  -23.4902   53.7791 C   0  0  0  1  0  0
   -1.0526  -25.4105   52.3444 C   0  0  0  1  0  0
   -0.7501  -26.4200   53.2849 C   0  0  0  1  0  0
   -1.4630  -27.6221   53.3147 C   0  0  0  1  0  0
   -2.4982  -27.8340   52.4021 C   0  0  0  1  0  0
   -2.8263  -26.8388   51.4703 C   0  0  0  1  0  0
   -2.1241  -25.6078   51.4115 C   0  0  0  1  0  0
   -2.5103  -24.5492   50.3599 C   0  0  0  1  0  0
   -1.2677  -24.2010   49.5345 C   0  0  0  1  0  0
   -0.9786  -23.0545   49.2791 O   0  0  0  1  0  0
   -0.4884  -25.2480   49.0865 N   0  0  0  1  0  0
    0.5362  -25.1822   48.0333 C   0  0  0  1  0  0
    0.8269  -24.1249   47.1826 C   0  0  0  1  0  0
    1.8760  -24.6141   46.4084 C   0  0  0  1  0  0
    2.1717  -25.8896   46.7942 N   0  0  0  1  0  0
    1.3649  -26.2225   47.7716 O   0  0  0  1  0  0
   -3.5567  -25.0096   49.2660 C   0  0  0  1  0  0
   -5.0490  -24.8050   49.6177 C   0  0  0  1  0  0
   -5.2379  -24.8141   51.0870 N   0  0  0  1  0  0
   -5.9615  -25.8216   51.7151 C   0  0  0  1  0  0
   -5.3939  -26.5595   52.7736 C   0  0  0  1  0  0
   -6.0583  -27.6737   53.3020 C   0  0  0  1  0  0
   -7.3188  -28.0720   52.8053 C   0  0  0  1  0  0
   -7.9797  -29.3518   53.3189 C   0  0  0  1  0  0
   -9.2600  -29.7751   52.5943 C   0  0  0  1  0  0
   -9.2587  -29.7895   51.3837 O   0  0  0  1  0  0
  -10.3428  -30.1199   53.2990 O   0  0  0  1  0  0
   -7.0692  -30.5102   53.7124 C   0  0  0  1  0  0
   -7.8361  -29.7591   54.7772 C   0  0  0  1  0  0
   -7.9302  -27.2693   51.8188 C   0  0  0  1  0  0
   -7.2630  -26.1556   51.2838 C   0  0  0  1  0  0
   -4.5032  -23.7295   51.8083 C   0  0  0  1  0  0
   -3.2053  -23.3332   51.0546 C   0  0  0  1  0  0
    1.7226  -25.1115   52.7035 H   0  0
    1.8084  -23.5199   51.9243 H   0  0
    1.2743  -24.9414   50.9819 H   0  0
   -0.6066  -23.4641   51.6787 H   0  0
    0.3216  -22.5568   53.7276 H   0  0
    0.2357  -24.1483   54.5068 H   0  0
   -1.2709  -23.2925   54.0692 H   0  0
    0.0551  -26.2585   54.0016 H   0  0
   -1.2120  -28.3899   54.0465 H   0  0
   -3.0514  -28.7731   52.4139 H   0  0
   -3.6439  -27.0162   50.7716 H   0  0
   -0.6446  -26.1996   49.5501 H   0  0
    0.3489  -23.1466   47.1325 H   0  0
    2.3830  -24.0632   45.6162 H   0  0
   -3.3457  -24.4761   48.3392 H   0  0
   -3.3954  -26.0667   49.0547 H   0  0
   -5.3871  -23.8495   49.2168 H   0  0
   -5.6392  -25.6066   49.1737 H   0  0
   -4.4296  -26.2605   53.1845 H   0  0
   -5.5954  -28.2419   54.1088 H   0  0
  -10.5351  -29.2903   53.9133 H   0  0
   -6.0193  -30.2180   53.6915 H   0  0
   -7.5292  -31.4728   53.4889 H   0  0
   -8.7021  -30.3238   55.1224 H   0  0
   -7.1936  -29.0687   55.3237 H   0  0
   -8.9321  -27.5167   51.4680 H   0  0
   -7.7550  -25.5432   50.5282 H   0  0
   -5.1486  -22.8554   51.8952 H   0  0
   -4.2452  -24.0742   52.8097 H   0  0
   -2.5088  -22.8829   51.7618 H   0  0
   -3.4486  -22.5842   50.3010 H   0  0
  1  2  1  0
  2  3  1  0
  2  4  1  0
  4  5  2  0
  4  9  1  0
  5  6  1  0
  6  7  2  0
  7  8  1  0
  8  9  2  0
  9 10  1  0
 10 11  1  0
 10 19  1  0
 10 35  1  0
 11 12  2  0
 11 13  1  0
 13 14  1  0
 14 15  2  0
 14 18  1  0
 15 16  1  0
 16 17  2  0
 17 18  1  0
 19 20  1  0
 20 21  1  0
 21 22  1  0
 21 34  1  0
 22 23  2  0
 22 33  1  0
 23 24  1  0
 24 25  2  0
 25 26  1  0
 25 32  1  0
 26 27  1  0
 26 30  1  0
 26 31  1  0
 27 28  2  0
 27 29  1  0
 30 31  1  0
 32 33  2  0
 34 35  1  0
  1 36  1  0
  1 37  1  0
  1 38  1  0
  2 39  1  0
  3 40  1  0
  3 41  1  0
  3 42  1  0
  5 43  1  0
  6 44  1  0
  7 45  1  0
  8 46  1  0
 13 47  1  0
 15 48  1  0
 16 49  1  0
 19 50  1  0
 19 51  1  0
 20 52  1  0
 20 53  1  0
 23 54  1  0
 24 55  1  0
 29 56  1  0
 30 57  1  0
 30 58  1  0
 31 59  1  0
 31 60  1  0
 32 61  1  0
 33 62  1  0
 34 63  1  0
 34 64  1  0
 35 65  1  0
 35 66  1  0
M  END
> <Name>
Molecule

> <AbsoluteEnergy>
58.9415

> <Clean Energy>
221.807

> <ConfNumber>
54

> <MOL_NUMBER>
3

> <RelativeEnergy>
13.7596

> <POSE_NUMBER>
61

> <LibDockScore>
108.2405

> <HotSpots>
0.47,-23.32,53.78,A,67,3
1.27,-23.52,47.59,A,27,15
-6.33,-26.32,51.98,A,57,33

$$$$
Molecule
  SciTegic05072616053D

 66 70  0  0  0  0            999 V2000
   -6.6543  -31.1951   51.0858 C   0  0  0  1  0  0
   -5.9608  -30.3185   52.1446 C   0  0  0  1  0  0
   -5.1742  -31.1700   53.1590 C   0  0  0  1  0  0
   -6.9289  -29.3818   52.8322 C   0  0  0  1  0  0
   -8.0865  -29.9656   53.3944 C   0  0  0  1  0  0
   -9.0457  -29.1876   54.0518 C   0  0  0  1  0  0
   -8.8624  -27.8076   54.1591 C   0  0  0  1  0  0
   -7.7225  -27.2076   53.6093 C   0  0  0  1  0  0
   -6.7300  -27.9675   52.9370 C   0  0  0  1  0  0
   -5.4953  -27.2646   52.3544 C   0  0  0  1  0  0
   -4.2016  -27.9885   52.7602 C   0  0  0  1  0  0
   -3.2817  -28.0589   51.9779 O   0  0  0  1  0  0
   -4.0811  -28.5562   54.0143 N   0  0  0  1  0  0
   -2.7966  -28.8014   54.7044 C   0  0  0  1  0  0
   -1.5438  -28.3029   54.3638 C   0  0  0  1  0  0
   -0.6998  -28.8379   55.3326 C   0  0  0  1  0  0
   -1.4232  -29.6087   56.1920 N   0  0  0  1  0  0
   -2.6815  -29.5839   55.8115 O   0  0  0  1  0  0
   -5.6444  -27.1565   50.7939 C   0  0  0  1  0  0
   -5.2009  -25.8240   50.1471 C   0  0  0  1  0  0
   -3.9887  -25.2391   50.7969 N   0  0  0  1  0  0
   -2.8748  -24.8081   50.0697 C   0  0  0  1  0  0
   -2.7378  -25.1073   48.6926 C   0  0  0  1  0  0
   -1.6036  -24.6962   47.9715 C   0  0  0  1  0  0
   -0.5878  -23.9655   48.6087 C   0  0  0  1  0  0
    0.6395  -23.5344   47.8428 C   0  0  0  1  0  0
    1.9225  -24.0938   48.4331 C   0  0  0  1  0  0
    2.2928  -23.6973   49.5149 O   0  0  0  1  0  0
    2.6054  -25.0091   47.7477 O   0  0  0  1  0  0
    0.5618  -23.3507   46.3346 C   0  0  0  1  0  0
    0.6794  -22.1423   47.2306 C   0  0  0  1  0  0
   -0.7182  -23.6411   49.9684 C   0  0  0  1  0  0
   -1.8484  -24.0560   50.6903 C   0  0  0  1  0  0
   -4.0429  -25.1301   52.2868 C   0  0  0  1  0  0
   -5.3005  -25.8031   52.8748 C   0  0  0  1  0  0
   -7.3345  -31.8792   51.5931 H   0  0
   -5.8937  -31.7752   50.5632 H   0  0
   -7.2047  -30.5746   50.3785 H   0  0
   -5.2405  -29.6940   51.6161 H   0  0
   -4.4261  -31.7503   52.6189 H   0  0
   -5.8669  -31.8544   53.6488 H   0  0
   -4.6914  -30.5317   53.8990 H   0  0
   -8.2349  -31.0425   53.3144 H   0  0
   -9.9323  -29.6568   54.4784 H   0  0
   -9.6065  -27.1972   54.6708 H   0  0
   -7.5942  -26.1290   53.7001 H   0  0
   -4.9802  -28.8380   54.5214 H   0  0
   -1.2838  -27.6470   53.5330 H   0  0
    0.3749  -28.6665   55.3943 H   0  0
   -6.6879  -27.3333   50.5332 H   0  0
   -5.0755  -27.9659   50.3363 H   0  0
   -6.0185  -25.1062   50.2137 H   0  0
   -4.9886  -25.9947   49.0917 H   0  0
   -3.5240  -25.6650   48.1838 H   0  0
   -1.5122  -24.9454   46.9143 H   0  0
    2.8034  -24.5625   46.8183 H   0  0
   -0.4561  -23.4820   45.9675 H   0  0
    1.5105  -23.5892   45.8538 H   0  0
    1.6907  -21.7357   47.2271 H   0  0
   -0.2759  -21.6294   47.3422 H   0  0
    0.0617  -23.0645   50.4658 H   0  0
   -1.9371  -23.7951   51.7449 H   0  0
   -4.0382  -24.0770   52.5682 H   0  0
   -3.1558  -25.6007   52.7108 H   0  0
   -5.2189  -25.8191   53.9616 H   0  0
   -6.1766  -25.2111   52.6099 H   0  0
  1  2  1  0
  2  3  1  0
  2  4  1  0
  4  5  2  0
  4  9  1  0
  5  6  1  0
  6  7  2  0
  7  8  1  0
  8  9  2  0
  9 10  1  0
 10 11  1  0
 10 19  1  0
 10 35  1  0
 11 12  2  0
 11 13  1  0
 13 14  1  0
 14 15  2  0
 14 18  1  0
 15 16  1  0
 16 17  2  0
 17 18  1  0
 19 20  1  0
 20 21  1  0
 21 22  1  0
 21 34  1  0
 22 23  2  0
 22 33  1  0
 23 24  1  0
 24 25  2  0
 25 26  1  0
 25 32  1  0
 26 27  1  0
 26 30  1  0
 26 31  1  0
 27 28  2  0
 27 29  1  0
 30 31  1  0
 32 33  2  0
 34 35  1  0
  1 36  1  0
  1 37  1  0
  1 38  1  0
  2 39  1  0
  3 40  1  0
  3 41  1  0
  3 42  1  0
  5 43  1  0
  6 44  1  0
  7 45  1  0
  8 46  1  0
 13 47  1  0
 15 48  1  0
 16 49  1  0
 19 50  1  0
 19 51  1  0
 20 52  1  0
 20 53  1  0
 23 54  1  0
 24 55  1  0
 29 56  1  0
 30 57  1  0
 30 58  1  0
 31 59  1  0
 31 60  1  0
 32 61  1  0
 33 62  1  0
 34 63  1  0
 34 64  1  0
 35 65  1  0
 35 66  1  0
M  END
> <Name>
Molecule

> <AbsoluteEnergy>
47.5628

> <Clean Energy>
221.807

> <ConfNumber>
2

> <MOL_NUMBER>
3

> <RelativeEnergy>
2.38089

> <POSE_NUMBER>
62

> <LibDockScore>
107.9024

> <HotSpots>
-9.53,-30.12,52.78,A,62,6
0.27,-22.52,46.78,A,23,30
-6.33,-26.32,51.98,A,57,35

$$$$
Molecule
  SciTegic05072616053D

 66 70  0  0  0  0            999 V2000
   -5.7180  -32.4183   52.2200 C   0  0  0  1  0  0
   -4.3117  -32.5305   52.8436 C   0  0  0  1  0  0
   -3.8951  -34.0253   52.8753 C   0  0  0  1  0  0
   -4.1877  -31.7831   54.1648 C   0  0  0  1  0  0
   -4.0415  -32.5846   55.3284 C   0  0  0  1  0  0
   -3.8574  -32.0311   56.5933 C   0  0  0  1  0  0
   -3.8257  -30.6482   56.7376 C   0  0  0  1  0  0
   -4.0073  -29.8287   55.6207 C   0  0  0  1  0  0
   -4.2130  -30.3440   54.3094 C   0  0  0  1  0  0
   -4.4799  -29.3228   53.1650 C   0  0  0  1  0  0
   -5.9839  -28.9995   53.0567 C   0  0  0  1  0  0
   -6.4607  -28.7666   51.9711 O   0  0  0  1  0  0
   -6.8149  -28.9805   54.1668 N   0  0  0  1  0  0
   -8.2386  -29.3950   54.1385 C   0  0  0  1  0  0
   -9.0551  -29.4783   55.2582 C   0  0  0  1  0  0
  -10.2786  -29.9179   54.7507 C   0  0  0  1  0  0
  -10.1789  -30.0795   53.4006 N   0  0  0  1  0  0
   -8.9517  -29.7635   53.0354 O   0  0  0  1  0  0
   -3.8914  -29.8088   51.7963 C   0  0  0  1  0  0
   -3.7471  -28.7963   50.6382 C   0  0  0  1  0  0
   -3.2126  -27.4698   51.0420 N   0  0  0  1  0  0
   -2.2780  -26.7619   50.2747 C   0  0  0  1  0  0
   -1.8112  -27.2359   49.0233 C   0  0  0  1  0  0
   -0.9070  -26.4783   48.2545 C   0  0  0  1  0  0
   -0.4480  -25.2327   48.7165 C   0  0  0  1  0  0
    0.4815  -24.3917   47.8620 C   0  0  0  1  0  0
    1.9355  -24.8607   47.8347 C   0  0  0  1  0  0
    2.4725  -25.0861   46.7677 O   0  0  0  1  0  0
    2.5984  -25.0085   48.9832 O   0  0  0  1  0  0
    0.2369  -22.8898   47.7905 C   0  0  0  1  0  0
   -0.0943  -23.7581   46.6031 C   0  0  0  1  0  0
   -0.8740  -24.7724   49.9759 C   0  0  0  1  0  0
   -1.7796  -25.5248   50.7422 C   0  0  0  1  0  0
   -3.8019  -26.9201   52.2884 C   0  0  0  1  0  0
   -3.7743  -27.9461   53.4328 C   0  0  0  1  0  0
   -6.4339  -32.9808   52.8194 H   0  0
   -5.7038  -32.8116   51.2035 H   0  0
   -6.0169  -31.3704   52.1947 H   0  0
   -3.5845  -32.0133   52.2177 H   0  0
   -3.8742  -34.4245   51.8613 H   0  0
   -4.6042  -34.5937   53.4771 H   0  0
   -2.9015  -34.1119   53.3151 H   0  0
   -4.0745  -33.6695   55.2281 H   0  0
   -3.7391  -32.6769   57.4634 H   0  0
   -3.6596  -30.2049   57.7194 H   0  0
   -3.9908  -28.7477   55.7592 H   0  0
   -6.4052  -28.6475   55.0975 H   0  0
   -8.7998  -29.2527   56.2936 H   0  0
  -11.1752  -30.1033   55.3422 H   0  0
   -4.5026  -30.6385   51.4412 H   0  0
   -2.9095  -30.2421   51.9866 H   0  0
   -4.7224  -28.6518   50.1735 H   0  0
   -3.0887  -29.2212   49.8806 H   0  0
   -2.1569  -28.2002   48.6509 H   0  0
   -0.5605  -26.8605   47.2943 H   0  0
    2.0163  -25.6764   49.5467 H   0  0
    1.1663  -22.3403   47.6410 H   0  0
   -0.6582  -22.6047   48.3434 H   0  0
   -1.1666  -23.9358   46.5207 H   0  0
    0.6582  -23.6728   45.8192 H   0  0
   -0.4983  -23.8241   50.3602 H   0  0
   -2.1030  -25.1485   51.7127 H   0  0
   -3.2411  -26.0350   52.5885 H   0  0
   -4.8339  -26.6261   52.0973 H   0  0
   -4.2304  -27.4906   54.3118 H   0  0
   -2.7339  -28.1367   53.6961 H   0  0
  1  2  1  0
  2  3  1  0
  2  4  1  0
  4  5  2  0
  4  9  1  0
  5  6  1  0
  6  7  2  0
  7  8  1  0
  8  9  2  0
  9 10  1  0
 10 11  1  0
 10 19  1  0
 10 35  1  0
 11 12  2  0
 11 13  1  0
 13 14  1  0
 14 15  2  0
 14 18  1  0
 15 16  1  0
 16 17  2  0
 17 18  1  0
 19 20  1  0
 20 21  1  0
 21 22  1  0
 21 34  1  0
 22 23  2  0
 22 33  1  0
 23 24  1  0
 24 25  2  0
 25 26  1  0
 25 32  1  0
 26 27  1  0
 26 30  1  0
 26 31  1  0
 27 28  2  0
 27 29  1  0
 30 31  1  0
 32 33  2  0
 34 35  1  0
  1 36  1  0
  1 37  1  0
  1 38  1  0
  2 39  1  0
  3 40  1  0
  3 41  1  0
  3 42  1  0
  5 43  1  0
  6 44  1  0
  7 45  1  0
  8 46  1  0
 13 47  1  0
 15 48  1  0
 16 49  1  0
 19 50  1  0
 19 51  1  0
 20 52  1  0
 20 53  1  0
 23 54  1  0
 24 55  1  0
 29 56  1  0
 30 57  1  0
 30 58  1  0
 31 59  1  0
 31 60  1  0
 32 61  1  0
 33 62  1  0
 34 63  1  0
 34 64  1  0
 35 65  1  0
 35 66  1  0
M  END
> <Name>
Molecule

> <AbsoluteEnergy>
59.5023

> <Clean Energy>
221.807

> <ConfNumber>
57

> <MOL_NUMBER>
3

> <RelativeEnergy>
14.3205

> <POSE_NUMBER>
63

> <LibDockScore>
105.5378

> <HotSpots>
-4.33,-32.92,55.19,A,75,5
-4.13,-31.12,56.59,A,79,7
-0.93,-23.32,46.98,A,25,30

$$$$
Molecule
  SciTegic05072616053D

 66 70  0  0  0  0            999 V2000
   -3.6509  -31.1454   53.2299 C   0  0  0  1  0  0
   -3.1711  -29.6884   53.3816 C   0  0  0  1  0  0
   -1.8830  -29.6093   54.2250 C   0  0  0  1  0  0
   -3.0139  -29.0063   52.0410 C   0  0  0  1  0  0
   -2.1055  -29.6043   51.1396 C   0  0  0  1  0  0
   -1.9341  -29.1037   49.8454 C   0  0  0  1  0  0
   -2.6801  -28.0005   49.4297 C   0  0  0  1  0  0
   -3.5669  -27.3772   50.3166 C   0  0  0  1  0  0
   -3.7339  -27.8272   51.6486 C   0  0  0  1  0  0
   -4.6812  -27.0844   52.6134 C   0  0  0  1  0  0
   -5.8467  -28.0375   52.8918 C   0  0  0  1  0  0
   -5.9878  -28.6126   53.9464 O   0  0  0  1  0  0
   -6.7484  -28.1976   51.8556 N   0  0  0  1  0  0
   -8.0158  -28.9284   51.8824 C   0  0  0  1  0  0
   -8.8351  -29.0168   50.7716 C   0  0  0  1  0  0
   -9.8979  -29.7875   51.2155 C   0  0  0  1  0  0
   -9.7030  -30.1194   52.5262 N   0  0  0  1  0  0
   -8.5626  -29.5982   52.9270 O   0  0  0  1  0  0
   -5.4500  -25.7927   52.0739 C   0  0  0  1  0  0
   -4.7640  -24.4428   52.3545 C   0  0  0  1  0  0
   -3.3197  -24.6754   52.1971 N   0  0  0  1  0  0
   -2.6381  -24.3484   51.0292 C   0  0  0  1  0  0
   -1.2629  -24.6173   50.8466 C   0  0  0  1  0  0
   -0.6628  -24.4100   49.5882 C   0  0  0  1  0  0
   -1.4267  -23.9204   48.5090 C   0  0  0  1  0  0
   -0.8481  -23.7872   47.1188 C   0  0  0  1  0  0
   -0.7807  -25.1274   46.3778 C   0  0  0  1  0  0
    0.2744  -25.4922   45.9120 O   0  0  0  1  0  0
   -1.8894  -25.8635   46.2512 O   0  0  0  1  0  0
   -1.2230  -22.5521   46.3152 C   0  0  0  1  0  0
    0.1916  -22.7182   46.8184 C   0  0  0  1  0  0
   -2.7698  -23.5690   48.7142 C   0  0  0  1  0  0
   -3.3612  -23.7691   49.9616 C   0  0  0  1  0  0
   -2.7554  -25.4773   53.3224 C   0  0  0  1  0  0
   -3.8247  -26.5193   53.8078 C   0  0  0  1  0  0
   -3.8386  -31.5571   54.2216 H   0  0
   -2.8634  -31.7248   52.7479 H   0  0
   -4.5613  -31.1834   52.6318 H   0  0
   -3.9452  -29.1427   53.9211 H   0  0
   -1.1078  -30.1993   53.7361 H   0  0
   -2.0830  -30.0316   55.2098 H   0  0
   -1.5577  -28.5735   54.3224 H   0  0
   -1.5277  -30.4717   51.4587 H   0  0
   -1.2223  -29.5723   49.1657 H   0  0
   -2.5726  -27.6230   48.4128 H   0  0
   -4.1455  -26.5205   49.9712 H   0  0
   -6.4894  -27.7335   50.9270 H   0  0
   -8.6815  -28.5837   49.7832 H   0  0
  -10.7563  -30.0830   50.6123 H   0  0
   -6.4471  -25.7709   52.5136 H   0  0
   -5.5866  -25.8933   50.9972 H   0  0
   -4.9792  -24.1216   53.3736 H   0  0
   -5.1010  -23.6989   51.6326 H   0  0
   -0.6652  -24.9857   51.6803 H   0  0
    0.3958  -24.6290   49.4488 H   0  0
   -2.5829  -25.2289   45.7834 H   0  0
   -1.7827  -21.8370   46.9180 H   0  0
   -1.3002  -22.7758   45.2512 H   0  0
    0.8675  -23.0299   46.0221 H   0  0
    0.3846  -22.0925   47.6898 H   0  0
   -3.3512  -23.1395   47.8984 H   0  0
   -4.3990  -23.4736   50.1158 H   0  0
   -2.4942  -24.8145   54.1474 H   0  0
   -1.8637  -26.0039   52.9823 H   0  0
   -3.3169  -27.3448   54.3065 H   0  0
   -4.4881  -26.0402   54.5279 H   0  0
  1  2  1  0
  2  3  1  0
  2  4  1  0
  4  5  2  0
  4  9  1  0
  5  6  1  0
  6  7  2  0
  7  8  1  0
  8  9  2  0
  9 10  1  0
 10 11  1  0
 10 19  1  0
 10 35  1  0
 11 12  2  0
 11 13  1  0
 13 14  1  0
 14 15  2  0
 14 18  1  0
 15 16  1  0
 16 17  2  0
 17 18  1  0
 19 20  1  0
 20 21  1  0
 21 22  1  0
 21 34  1  0
 22 23  2  0
 22 33  1  0
 23 24  1  0
 24 25  2  0
 25 26  1  0
 25 32  1  0
 26 27  1  0
 26 30  1  0
 26 31  1  0
 27 28  2  0
 27 29  1  0
 30 31  1  0
 32 33  2  0
 34 35  1  0
  1 36  1  0
  1 37  1  0
  1 38  1  0
  2 39  1  0
  3 40  1  0
  3 41  1  0
  3 42  1  0
  5 43  1  0
  6 44  1  0
  7 45  1  0
  8 46  1  0
 13 47  1  0
 15 48  1  0
 16 49  1  0
 19 50  1  0
 19 51  1  0
 20 52  1  0
 20 53  1  0
 23 54  1  0
 24 55  1  0
 29 56  1  0
 30 57  1  0
 30 58  1  0
 31 59  1  0
 31 60  1  0
 32 61  1  0
 33 62  1  0
 34 63  1  0
 34 64  1  0
 35 65  1  0
 35 66  1  0
M  END
> <Name>
Molecule

> <AbsoluteEnergy>
64.3325

> <Clean Energy>
221.807

> <ConfNumber>
76

> <MOL_NUMBER>
3

> <RelativeEnergy>
19.1507

> <POSE_NUMBER>
64

> <LibDockScore>
105.2935

> <HotSpots>
-1.93,-29.12,49.19,A,34,6
-9.33,-29.92,51.19,A,52,16
0.27,-22.52,46.78,A,23,31

$$$$
Molecule
  SciTegic05072616053D

 66 70  0  0  0  0            999 V2000
   -1.4807  -26.8803   54.2708 C   0  0  0  1  0  0
   -1.1301  -26.6542   52.7870 C   0  0  0  1  0  0
   -0.0060  -25.6048   52.6602 C   0  0  0  1  0  0
   -2.3608  -26.2920   51.9844 C   0  0  0  1  0  0
   -2.5720  -24.9143   51.7413 C   0  0  0  1  0  0
   -3.7500  -24.4526   51.1473 C   0  0  0  1  0  0
   -4.7406  -25.3605   50.7809 C   0  0  0  1  0  0
   -4.5253  -26.7308   50.9595 C   0  0  0  1  0  0
   -3.3134  -27.2481   51.4920 C   0  0  0  1  0  0
   -3.0970  -28.7823   51.5371 C   0  0  0  1  0  0
   -3.4545  -29.2781   52.9462 C   0  0  0  1  0  0
   -3.8495  -28.4830   53.7693 O   0  0  0  1  0  0
   -3.3256  -30.6070   53.2969 N   0  0  0  1  0  0
   -3.6771  -31.1292   54.6374 C   0  0  0  1  0  0
   -4.2004  -30.3952   55.6959 C   0  0  0  1  0  0
   -4.3272  -31.3269   56.7185 C   0  0  0  1  0  0
   -3.9003  -32.5456   56.2833 N   0  0  0  1  0  0
   -3.5039  -32.4239   55.0338 O   0  0  0  1  0  0
   -1.6015  -29.1992   51.1859 C   0  0  0  1  0  0
   -1.3343  -29.4793   49.6892 C   0  0  0  1  0  0
   -2.2448  -28.6006   48.9301 N   0  0  0  1  0  0
   -1.8767  -27.3363   48.4739 C   0  0  0  1  0  0
   -2.7825  -26.4452   47.8518 C   0  0  0  1  0  0
   -2.4044  -25.1119   47.5963 C   0  0  0  1  0  0
   -1.1105  -24.6633   47.9342 C   0  0  0  1  0  0
   -0.7046  -23.2093   47.7949 C   0  0  0  1  0  0
   -1.8545  -22.2304   48.0907 C   0  0  0  1  0  0
   -2.6195  -22.4785   48.9966 O   0  0  0  1  0  0
   -2.0062  -21.1207   47.3637 O   0  0  0  1  0  0
    0.6904  -22.8234   48.2602 C   0  0  0  1  0  0
    0.3654  -22.8198   46.7842 C   0  0  0  1  0  0
   -0.1743  -25.5789   48.4371 C   0  0  0  1  0  0
   -0.5521  -26.8982   48.6958 C   0  0  0  1  0  0
   -3.6360  -29.1213   48.9622 C   0  0  0  1  0  0
   -3.9694  -29.5280   50.4429 C   0  0  0  1  0  0
   -1.8116  -25.9386   54.7089 H   0  0
   -0.5945  -27.2314   54.7994 H   0  0
   -2.2749  -27.6222   54.3539 H   0  0
   -0.7536  -27.5859   52.3648 H   0  0
    0.8770  -25.9587   53.1924 H   0  0
   -0.3401  -24.6659   53.1018 H   0  0
    0.2374  -25.4493   51.6092 H   0  0
   -1.8001  -24.1981   52.0231 H   0  0
   -3.8928  -23.3864   50.9715 H   0  0
   -5.6795  -25.0046   50.3568 H   0  0
   -5.3157  -27.4274   50.6801 H   0  0
   -2.9537  -31.2930   52.5648 H   0  0
   -4.4526  -29.3350   55.7182 H   0  0
   -4.7099  -31.1153   57.7169 H   0  0
   -1.3427  -30.0906   51.7574 H   0  0
   -0.9308  -28.4059   51.5159 H   0  0
   -1.5523  -30.5230   49.4626 H   0  0
   -0.2992  -29.2384   49.4469 H   0  0
   -3.7767  -26.7913   47.5690 H   0  0
   -3.1144  -24.4248   47.1359 H   0  0
   -2.0724  -21.4655   46.3741 H   0  0
    1.2756  -23.6992   48.5407 H   0  0
    0.7101  -21.8135   48.6700 H   0  0
    0.2117  -21.8081   46.4089 H   0  0
    0.7758  -23.6947   46.2800 H   0  0
    0.8506  -25.2598   48.6264 H   0  0
    0.1881  -27.6024   49.0757 H   0  0
   -3.7171  -29.9953   48.3159 H   0  0
   -4.3264  -28.3452   48.6317 H   0  0
   -5.0230  -29.3232   50.6331 H   0  0
   -3.8251  -30.6029   50.5516 H   0  0
  1  2  1  0
  2  3  1  0
  2  4  1  0
  4  5  2  0
  4  9  1  0
  5  6  1  0
  6  7  2  0
  7  8  1  0
  8  9  2  0
  9 10  1  0
 10 11  1  0
 10 19  1  0
 10 35  1  0
 11 12  2  0
 11 13  1  0
 13 14  1  0
 14 15  2  0
 14 18  1  0
 15 16  1  0
 16 17  2  0
 17 18  1  0
 19 20  1  0
 20 21  1  0
 21 22  1  0
 21 34  1  0
 22 23  2  0
 22 33  1  0
 23 24  1  0
 24 25  2  0
 25 26  1  0
 25 32  1  0
 26 27  1  0
 26 30  1  0
 26 31  1  0
 27 28  2  0
 27 29  1  0
 30 31  1  0
 32 33  2  0
 34 35  1  0
  1 36  1  0
  1 37  1  0
  1 38  1  0
  2 39  1  0
  3 40  1  0
  3 41  1  0
  3 42  1  0
  5 43  1  0
  6 44  1  0
  7 45  1  0
  8 46  1  0
 13 47  1  0
 15 48  1  0
 16 49  1  0
 19 50  1  0
 19 51  1  0
 20 52  1  0
 20 53  1  0
 23 54  1  0
 24 55  1  0
 29 56  1  0
 30 57  1  0
 30 58  1  0
 31 59  1  0
 31 60  1  0
 32 61  1  0
 33 62  1  0
 34 63  1  0
 34 64  1  0
 35 65  1  0
 35 66  1  0
M  END
> <Name>
Molecule

> <AbsoluteEnergy>
65.1788

> <Clean Energy>
221.807

> <ConfNumber>
81

> <MOL_NUMBER>
3

> <RelativeEnergy>
19.997

> <POSE_NUMBER>
65

> <LibDockScore>
102.9973

> <HotSpots>
-0.33,-25.52,53.19,A,64,3
-3.33,-32.52,54.19,P,48,18
-1.73,-21.72,46.78,A,24,31

$$$$
Molecule
  SciTegic05072616053D

 66 70  0  0  0  0            999 V2000
   -5.9338  -30.6209   50.2847 C   0  0  0  1  0  0
   -5.0770  -30.0705   51.4415 C   0  0  0  1  0  0
   -4.5279  -31.2071   52.3260 C   0  0  0  1  0  0
   -3.9780  -29.1610   50.9432 C   0  0  0  1  0  0
   -3.2376  -29.6200   49.8285 C   0  0  0  1  0  0
   -2.1633  -28.8872   49.3161 C   0  0  0  1  0  0
   -1.7996  -27.6839   49.9198 C   0  0  0  1  0  0
   -2.5274  -27.2053   51.0168 C   0  0  0  1  0  0
   -3.6561  -27.8949   51.5321 C   0  0  0  1  0  0
   -4.4792  -27.2755   52.6831 C   0  0  0  1  0  0
   -4.7367  -28.3332   53.7587 C   0  0  0  1  0  0
   -5.8670  -28.6059   54.0926 O   0  0  0  1  0  0
   -3.6584  -28.9708   54.3397 N   0  0  0  1  0  0
   -3.7214  -30.2268   55.1101 C   0  0  0  1  0  0
   -4.8382  -31.0091   55.3745 C   0  0  0  1  0  0
   -4.3274  -32.0668   56.1230 C   0  0  0  1  0  0
   -2.9836  -31.9045   56.2854 N   0  0  0  1  0  0
   -2.6244  -30.7976   55.6756 O   0  0  0  1  0  0
   -3.7889  -26.0740   53.4458 C   0  0  0  1  0  0
   -3.9780  -24.6767   52.7947 C   0  0  0  1  0  0
   -4.2316  -24.8272   51.3370 N   0  0  0  1  0  0
   -3.3047  -24.4982   50.3448 C   0  0  0  1  0  0
   -2.1478  -23.7435   50.6528 C   0  0  0  1  0  0
   -1.1040  -23.6224   49.7263 C   0  0  0  1  0  0
   -1.2030  -24.2454   48.4739 C   0  0  0  1  0  0
    0.0068  -24.2946   47.5759 C   0  0  0  1  0  0
    1.2153  -24.8215   48.3449 C   0  0  0  1  0  0
    2.1393  -24.0788   48.5794 O   0  0  0  1  0  0
    1.2297  -26.0860   48.7706 O   0  0  0  1  0  0
    0.2007  -23.2134   46.5258 C   0  0  0  1  0  0
   -0.1234  -24.6249   46.0979 C   0  0  0  1  0  0
   -2.4129  -24.8480   48.0913 C   0  0  0  1  0  0
   -3.4635  -24.9588   49.0163 C   0  0  0  1  0  0
   -5.5180  -25.5328   51.0488 C   0  0  0  1  0  0
   -5.7915  -26.6224   52.1211 C   0  0  0  1  0  0
   -6.7635  -31.1890   50.7053 H   0  0
   -5.3176  -31.2874   49.6812 H   0  0
   -6.3129  -29.8038   49.6709 H   0  0
   -5.7292  -29.4616   52.0676 H   0  0
   -3.9226  -31.8691   51.7068 H   0  0
   -5.3685  -31.7707   52.7308 H   0  0
   -3.9253  -30.7993   53.1376 H   0  0
   -3.5107  -30.5652   49.3593 H   0  0
   -1.6130  -29.2541   48.4497 H   0  0
   -0.9504  -27.1167   49.5387 H   0  0
   -2.2171  -26.2736   51.4899 H   0  0
   -2.6973  -28.5158   54.2211 H   0  0
   -5.8700  -30.8362   55.0687 H   0  0
   -4.9125  -32.8971   56.5184 H   0  0
   -4.1779  -26.0378   54.4634 H   0  0
   -2.7210  -26.2777   53.5248 H   0  0
   -4.8254  -24.1722   53.2590 H   0  0
   -3.0778  -24.0808   52.9453 H   0  0
   -2.0680  -23.2509   51.6219 H   0  0
   -0.2152  -23.0441   49.9788 H   0  0
    1.0761  -26.6608   47.9055 H   0  0
    1.2557  -22.9814   46.3800 H   0  0
   -0.6707  -22.5622   46.4568 H   0  0
   -1.1672  -24.7252   45.8005 H   0  0
    0.7592  -25.1449   45.7253 H   0  0
   -2.5360  -25.2291   47.0776 H   0  0
   -4.4098  -25.4036   48.7083 H   0  0
   -6.3344  -24.8106   51.0524 H   0  0
   -5.4617  -26.0007   50.0659 H   0  0
   -6.4153  -27.4012   51.6824 H   0  0
   -6.3471  -26.1751   52.9453 H   0  0
  1  2  1  0
  2  3  1  0
  2  4  1  0
  4  5  2  0
  4  9  1  0
  5  6  1  0
  6  7  2  0
  7  8  1  0
  8  9  2  0
  9 10  1  0
 10 11  1  0
 10 19  1  0
 10 35  1  0
 11 12  2  0
 11 13  1  0
 13 14  1  0
 14 15  2  0
 14 18  1  0
 15 16  1  0
 16 17  2  0
 17 18  1  0
 19 20  1  0
 20 21  1  0
 21 22  1  0
 21 34  1  0
 22 23  2  0
 22 33  1  0
 23 24  1  0
 24 25  2  0
 25 26  1  0
 25 32  1  0
 26 27  1  0
 26 30  1  0
 26 31  1  0
 27 28  2  0
 27 29  1  0
 30 31  1  0
 32 33  2  0
 34 35  1  0
  1 36  1  0
  1 37  1  0
  1 38  1  0
  2 39  1  0
  3 40  1  0
  3 41  1  0
  3 42  1  0
  5 43  1  0
  6 44  1  0
  7 45  1  0
  8 46  1  0
 13 47  1  0
 15 48  1  0
 16 49  1  0
 19 50  1  0
 19 51  1  0
 20 52  1  0
 20 53  1  0
 23 54  1  0
 24 55  1  0
 29 56  1  0
 30 57  1  0
 30 58  1  0
 31 59  1  0
 31 60  1  0
 32 61  1  0
 33 62  1  0
 34 63  1  0
 34 64  1  0
 35 65  1  0
 35 66  1  0
M  END
> <Name>
Molecule

> <AbsoluteEnergy>
55.2053

> <Clean Energy>
221.807

> <ConfNumber>
34

> <MOL_NUMBER>
3

> <RelativeEnergy>
10.0235

> <POSE_NUMBER>
66

> <LibDockScore>
101.1924

> <HotSpots>
-1.93,-29.12,49.19,A,34,6
-3.33,-32.52,56.19,P,67,17
1.27,-23.52,47.59,A,27,30

$$$$
Molecule
  SciTegic05072616053D

 66 70  0  0  0  0            999 V2000
   -3.0177  -26.0661   54.7810 C   0  0  0  1  0  0
   -2.5852  -27.3652   54.0764 C   0  0  0  1  0  0
   -1.3851  -28.0243   54.7805 C   0  0  0  1  0  0
   -2.3333  -27.1556   52.6007 C   0  0  0  1  0  0
   -1.1508  -26.4689   52.2499 C   0  0  0  1  0  0
   -0.8263  -26.2150   50.9121 C   0  0  0  1  0  0
   -1.6871  -26.6436   49.8988 C   0  0  0  1  0  0
   -2.8647  -27.3301   50.2224 C   0  0  0  1  0  0
   -3.2168  -27.6103   51.5681 C   0  0  0  1  0  0
   -4.5070  -28.3794   51.8800 C   0  0  0  1  0  0
   -4.1816  -29.5380   52.8405 C   0  0  0  1  0  0
   -3.1268  -30.1210   52.7214 O   0  0  0  1  0  0
   -5.0576  -29.9336   53.8302 N   0  0  0  1  0  0
   -4.7931  -31.0492   54.7568 C   0  0  0  1  0  0
   -5.7331  -31.5669   55.6349 C   0  0  0  1  0  0
   -5.0563  -32.6022   56.2695 C   0  0  0  1  0  0
   -3.7824  -32.6763   55.7855 N   0  0  0  1  0  0
   -3.6284  -31.7407   54.8732 O   0  0  0  1  0  0
   -5.1272  -29.1004   50.6359 C   0  0  0  1  0  0
   -6.4163  -29.8973   50.9559 C   0  0  0  1  0  0
   -7.2950  -29.1590   51.9123 N   0  0  0  1  0  0
   -8.2121  -29.7894   52.7561 C   0  0  0  1  0  0
   -8.4658  -29.2893   54.0538 C   0  0  0  1  0  0
   -9.3204  -29.9729   54.9350 C   0  0  0  1  0  0
   -9.9494  -31.1640   54.5316 C   0  0  0  1  0  0
  -10.8247  -31.9377   55.4947 C   0  0  0  1  0  0
  -10.1100  -32.3201   56.7988 C   0  0  0  1  0  0
   -8.9088  -32.4726   56.7968 O   0  0  0  1  0  0
  -10.8055  -32.4890   57.9271 O   0  0  0  1  0  0
  -12.3153  -31.6230   55.5138 C   0  0  0  1  0  0
  -11.8298  -32.9270   54.9245 C   0  0  0  1  0  0
   -9.7480  -31.6427   53.2263 C   0  0  0  1  0  0
   -8.8956  -30.9596   52.3468 C   0  0  0  1  0  0
   -7.0661  -27.6877   51.9484 C   0  0  0  1  0  0
   -5.6075  -27.3552   52.3583 C   0  0  0  1  0  0
   -2.1731  -25.3771   54.7846 H   0  0
   -3.2841  -26.3036   55.8109 H   0  0
   -3.8673  -25.6169   54.2668 H   0  0
   -3.4206  -28.0611   54.1534 H   0  0
   -1.6664  -28.2439   55.8104 H   0  0
   -0.5554  -27.3174   54.7841 H   0  0
   -1.0961  -28.9408   54.2660 H   0  0
   -0.4769  -26.1296   53.0366 H   0  0
    0.0932  -25.6856   50.6624 H   0  0
   -1.4424  -26.4438   48.8556 H   0  0
   -3.5268  -27.6570   49.4206 H   0  0
   -5.9802  -29.4011   53.9308 H   0  0
   -6.7609  -31.2392   55.7909 H   0  0
   -5.4777  -33.2538   57.0350 H   0  0
   -4.3873  -29.7826   50.2173 H   0  0
   -5.3547  -28.3553   49.8736 H   0  0
   -6.9657  -30.0765   50.0317 H   0  0
   -6.1455  -30.8597   51.3902 H   0  0
   -7.9924  -28.3615   54.3749 H   0  0
   -9.4965  -29.5782   55.9356 H   0  0
  -11.5245  -33.2148   57.6847 H   0  0
  -12.5824  -30.9057   54.7377 H   0  0
  -12.7403  -31.7642   56.5076 H   0  0
  -11.9985  -33.7626   55.6038 H   0  0
  -11.8391  -32.9040   53.8348 H   0  0
  -10.2562  -32.5486   52.8958 H   0  0
   -8.7573  -31.3353   51.3330 H   0  0
   -7.7517  -27.2346   52.6645 H   0  0
   -7.2655  -27.2695   50.9618 H   0  0
   -5.3565  -26.3683   51.9696 H   0  0
   -5.5629  -27.2805   53.4448 H   0  0
  1  2  1  0
  2  3  1  0
  2  4  1  0
  4  5  2  0
  4  9  1  0
  5  6  1  0
  6  7  2  0
  7  8  1  0
  8  9  2  0
  9 10  1  0
 10 11  1  0
 10 19  1  0
 10 35  1  0
 11 12  2  0
 11 13  1  0
 13 14  1  0
 14 15  2  0
 14 18  1  0
 15 16  1  0
 16 17  2  0
 17 18  1  0
 19 20  1  0
 20 21  1  0
 21 22  1  0
 21 34  1  0
 22 23  2  0
 22 33  1  0
 23 24  1  0
 24 25  2  0
 25 26  1  0
 25 32  1  0
 26 27  1  0
 26 30  1  0
 26 31  1  0
 27 28  2  0
 27 29  1  0
 30 31  1  0
 32 33  2  0
 34 35  1  0
  1 36  1  0
  1 37  1  0
  1 38  1  0
  2 39  1  0
  3 40  1  0
  3 41  1  0
  3 42  1  0
  5 43  1  0
  6 44  1  0
  7 45  1  0
  8 46  1  0
 13 47  1  0
 15 48  1  0
 16 49  1  0
 19 50  1  0
 19 51  1  0
 20 52  1  0
 20 53  1  0
 23 54  1  0
 24 55  1  0
 29 56  1  0
 30 57  1  0
 30 58  1  0
 31 59  1  0
 31 60  1  0
 32 61  1  0
 33 62  1  0
 34 63  1  0
 34 64  1  0
 35 65  1  0
 35 66  1  0
M  END
> <Name>
Molecule

> <AbsoluteEnergy>
53.2308

> <Clean Energy>
221.807

> <ConfNumber>
23

> <MOL_NUMBER>
3

> <RelativeEnergy>
8.04895

> <POSE_NUMBER>
67

> <LibDockScore>
100.5984

> <HotSpots>
-0.33,-25.52,53.19,A,64,5
-3.33,-32.52,54.19,P,48,17
-6.33,-26.32,51.98,A,57,34

$$$$
Molecule
  SciTegic05072616053D

 66 70  0  0  0  0            999 V2000
    0.8671  -25.4568   47.5069 C   0  0  0  1  0  0
   -0.6444  -25.1946   47.3653 C   0  0  0  1  0  0
   -1.2621  -26.0448   46.2406 C   0  0  0  1  0  0
   -0.9501  -23.7214   47.1997 C   0  0  0  1  0  0
   -0.2859  -23.0482   46.1514 C   0  0  0  1  0  0
   -0.4827  -21.6812   45.9278 C   0  0  0  1  0  0
   -1.3505  -20.9623   46.7535 C   0  0  0  1  0  0
   -2.0267  -21.6102   47.7959 C   0  0  0  1  0  0
   -1.8591  -22.9984   48.0386 C   0  0  0  1  0  0
   -2.6322  -23.6941   49.1678 C   0  0  0  1  0  0
   -1.6187  -24.3489   50.1307 C   0  0  0  1  0  0
   -0.4617  -23.9914   50.1068 O   0  0  0  1  0  0
   -1.9964  -25.3434   51.0115 N   0  0  0  1  0  0
   -1.2238  -25.7529   52.2035 C   0  0  0  1  0  0
    0.0080  -25.2684   52.6332 C   0  0  0  1  0  0
    0.2694  -26.0049   53.7854 C   0  0  0  1  0  0
   -0.7584  -26.8700   54.0155 N   0  0  0  1  0  0
   -1.6524  -26.7142   53.0649 O   0  0  0  1  0  0
   -3.6619  -24.6928   48.5057 C   0  0  0  1  0  0
   -5.1160  -24.5785   49.0023 C   0  0  0  1  0  0
   -5.1465  -24.5260   50.4882 N   0  0  0  1  0  0
   -5.8017  -25.4964   51.2412 C   0  0  0  1  0  0
   -5.0925  -26.3082   52.1562 C   0  0  0  1  0  0
   -5.7379  -27.3523   52.8368 C   0  0  0  1  0  0
   -7.1039  -27.6020   52.6182 C   0  0  0  1  0  0
   -7.7667  -28.7882   53.2728 C   0  0  0  1  0  0
   -8.0317  -29.8918   52.2595 C   0  0  0  1  0  0
   -9.1413  -30.0029   51.7921 O   0  0  0  1  0  0
   -7.0389  -30.6992   51.8872 O   0  0  0  1  0  0
   -8.7582  -28.5883   54.4097 C   0  0  0  1  0  0
   -7.3958  -29.1700   54.6976 C   0  0  0  1  0  0
   -7.8376  -26.7541   51.7701 C   0  0  0  1  0  0
   -7.1925  -25.7077   51.0915 C   0  0  0  1  0  0
   -4.3757  -23.4001   51.0986 C   0  0  0  1  0  0
   -3.4602  -22.7065   50.0616 C   0  0  0  1  0  0
    1.3518  -25.2173   46.5604 H   0  0
    1.0177  -26.5142   47.7243 H   0  0
    1.2857  -24.8465   48.3071 H   0  0
   -1.1152  -25.5070   48.2974 H   0  0
   -1.0942  -27.0975   46.4682 H   0  0
   -0.7602  -25.8005   45.3044 H   0  0
   -2.3304  -25.8455   46.1561 H   0  0
    0.3928  -23.6038   45.5043 H   0  0
    0.0388  -21.1792   45.1128 H   0  0
   -1.5018  -19.8958   46.5867 H   0  0
   -2.6966  -21.0349   48.4349 H   0  0
   -2.9157  -25.8551   50.8168 H   0  0
    0.6236  -24.4942   52.1752 H   0  0
    1.1588  -25.9051   54.4075 H   0  0
   -3.6521  -24.5377   47.4268 H   0  0
   -3.3178  -25.7128   48.6770 H   0  0
   -5.5657  -23.6709   48.5996 H   0  0
   -5.6854  -25.4426   48.6600 H   0  0
   -4.0336  -26.1212   52.3349 H   0  0
   -5.1779  -27.9718   53.5374 H   0  0
   -6.6803  -31.1131   52.7831 H   0  0
   -9.5312  -29.3567   54.4060 H   0  0
   -8.8197  -27.5413   54.7064 H   0  0
   -6.7311  -28.4335   55.1491 H   0  0
   -7.4421  -30.2487   54.8470 H   0  0
   -8.9085  -26.9092   51.6392 H   0  0
   -7.7702  -25.0504   50.4416 H   0  0
   -5.0735  -22.6683   51.5056 H   0  0
   -3.7639  -23.7852   51.9144 H   0  0
   -2.7702  -22.0480   50.5893 H   0  0
   -4.0754  -22.0793   49.4164 H   0  0
  1  2  1  0
  2  3  1  0
  2  4  1  0
  4  5  2  0
  4  9  1  0
  5  6  1  0
  6  7  2  0
  7  8  1  0
  8  9  2  0
  9 10  1  0
 10 11  1  0
 10 19  1  0
 10 35  1  0
 11 12  2  0
 11 13  1  0
 13 14  1  0
 14 15  2  0
 14 18  1  0
 15 16  1  0
 16 17  2  0
 17 18  1  0
 19 20  1  0
 20 21  1  0
 21 22  1  0
 21 34  1  0
 22 23  2  0
 22 33  1  0
 23 24  1  0
 24 25  2  0
 25 26  1  0
 25 32  1  0
 26 27  1  0
 26 30  1  0
 26 31  1  0
 27 28  2  0
 27 29  1  0
 30 31  1  0
 32 33  2  0
 34 35  1  0
  1 36  1  0
  1 37  1  0
  1 38  1  0
  2 39  1  0
  3 40  1  0
  3 41  1  0
  3 42  1  0
  5 43  1  0
  6 44  1  0
  7 45  1  0
  8 46  1  0
 13 47  1  0
 15 48  1  0
 16 49  1  0
 19 50  1  0
 19 51  1  0
 20 52  1  0
 20 53  1  0
 23 54  1  0
 24 55  1  0
 29 56  1  0
 30 57  1  0
 30 58  1  0
 31 59  1  0
 31 60  1  0
 32 61  1  0
 33 62  1  0
 34 63  1  0
 34 64  1  0
 35 65  1  0
 35 66  1  0
M  END
> <Name>
Molecule

> <AbsoluteEnergy>
51.0759

> <Clean Energy>
221.807

> <ConfNumber>
14

> <MOL_NUMBER>
3

> <RelativeEnergy>
5.89403

> <POSE_NUMBER>
68

> <LibDockScore>
100.4118

> <HotSpots>
-1.73,-21.72,46.78,A,24,6
-0.33,-25.52,53.19,A,64,15
-7.93,-28.32,52.38,A,59,32

$$$$
Molecule
  SciTegic05072616053D

 66 70  0  0  0  0            999 V2000
   -2.2820  -26.4119   47.8322 C   0  0  0  1  0  0
   -2.0476  -24.9172   48.0989 C   0  0  0  1  0  0
   -0.6803  -24.6051   48.7338 C   0  0  0  1  0  0
   -3.2127  -24.0928   48.6475 C   0  0  0  1  0  0
   -3.5547  -22.9832   47.8309 C   0  0  0  1  0  0
   -4.6058  -22.1197   48.1414 C   0  0  0  1  0  0
   -5.3623  -22.3483   49.2861 C   0  0  0  1  0  0
   -5.0488  -23.4226   50.1218 C   0  0  0  1  0  0
   -3.9708  -24.3153   49.8598 C   0  0  0  1  0  0
   -3.7199  -25.4393   50.8852 C   0  0  0  1  0  0
   -2.2392  -25.5746   51.2598 C   0  0  0  1  0  0
   -1.6155  -26.5605   50.9385 O   0  0  0  1  0  0
   -1.6086  -24.5804   51.9860 N   0  0  0  1  0  0
   -0.1631  -24.6012   52.2912 C   0  0  0  1  0  0
    0.4798  -23.7105   53.1400 C   0  0  0  1  0  0
    1.8123  -24.1110   53.0966 C   0  0  0  1  0  0
    1.9375  -25.1839   52.2653 N   0  0  0  1  0  0
    0.7483  -25.4788   51.7863 O   0  0  0  1  0  0
   -4.3845  -26.7501   50.3463 C   0  0  0  1  0  0
   -4.3373  -27.9567   51.3062 C   0  0  0  1  0  0
   -4.9183  -27.5926   52.6256 N   0  0  0  1  0  0
   -5.9932  -28.2651   53.2008 C   0  0  0  1  0  0
   -5.7974  -29.1217   54.3081 C   0  0  0  1  0  0
   -6.8885  -29.7358   54.9428 C   0  0  0  1  0  0
   -8.1931  -29.5142   54.4736 C   0  0  0  1  0  0
   -9.3805  -30.0990   55.2026 C   0  0  0  1  0  0
   -9.6606  -29.3936   56.5309 C   0  0  0  1  0  0
   -9.3082  -28.2435   56.6840 O   0  0  0  1  0  0
  -10.2897  -30.0600   57.4989 O   0  0  0  1  0  0
   -9.6568  -31.5910   55.0772 C   0  0  0  1  0  0
  -10.5716  -30.5984   54.3997 C   0  0  0  1  0  0
   -8.3977  -28.7199   53.3329 C   0  0  0  1  0  0
   -7.3080  -28.0961   52.7048 C   0  0  0  1  0  0
   -4.2967  -26.3938   53.2507 C   0  0  0  1  0  0
   -4.4198  -25.2057   52.2764 C   0  0  0  1  0  0
   -2.1922  -26.9338   48.7849 H   0  0
   -1.4846  -26.7573   47.1743 H   0  0
   -3.2594  -26.5888   47.3834 H   0  0
   -2.0027  -24.5245   47.0831 H   0  0
    0.0888  -24.9825   48.0599 H   0  0
   -0.6188  -25.1589   49.6706 H   0  0
   -0.5550  -23.5361   48.9059 H   0  0
   -2.9742  -22.7987   46.9270 H   0  0
   -4.8321  -21.2735   47.4927 H   0  0
   -6.1970  -21.6912   49.5301 H   0  0
   -5.6554  -23.5846   51.0128 H   0  0
   -2.1942  -23.7591   52.3429 H   0  0
    0.0431  -22.8891   53.7080 H   0  0
    2.6292  -23.6395   53.6429 H   0  0
   -3.8968  -27.0307   49.4128 H   0  0
   -5.4264  -26.5389   50.1058 H   0  0
   -3.3025  -28.2707   51.4427 H   0  0
   -4.9059  -28.7819   50.8775 H   0  0
   -4.7874  -29.3075   54.6734 H   0  0
   -6.7226  -30.3861   55.8017 H   0  0
   -9.7057  -30.9169   57.6637 H   0  0
  -10.1027  -31.9929   55.9870 H   0  0
   -8.9794  -32.0641   54.3663 H   0  0
  -10.3827  -30.5442   53.3276 H   0  0
  -11.5048  -30.4719   54.9485 H   0  0
   -9.4039  -28.5878   52.9350 H   0  0
   -7.4764  -27.4747   51.8253 H   0  0
   -4.8136  -26.1573   54.1808 H   0  0
   -3.2440  -26.5908   53.4535 H   0  0
   -3.9857  -24.3223   52.7447 H   0  0
   -5.4767  -24.9983   52.1092 H   0  0
  1  2  1  0
  2  3  1  0
  2  4  1  0
  4  5  2  0
  4  9  1  0
  5  6  1  0
  6  7  2  0
  7  8  1  0
  8  9  2  0
  9 10  1  0
 10 11  1  0
 10 19  1  0
 10 35  1  0
 11 12  2  0
 11 13  1  0
 13 14  1  0
 14 15  2  0
 14 18  1  0
 15 16  1  0
 16 17  2  0
 17 18  1  0
 19 20  1  0
 20 21  1  0
 21 22  1  0
 21 34  1  0
 22 23  2  0
 22 33  1  0
 23 24  1  0
 24 25  2  0
 25 26  1  0
 25 32  1  0
 26 27  1  0
 26 30  1  0
 26 31  1  0
 27 28  2  0
 27 29  1  0
 30 31  1  0
 32 33  2  0
 34 35  1  0
  1 36  1  0
  1 37  1  0
  1 38  1  0
  2 39  1  0
  3 40  1  0
  3 41  1  0
  3 42  1  0
  5 43  1  0
  6 44  1  0
  7 45  1  0
  8 46  1  0
 13 47  1  0
 15 48  1  0
 16 49  1  0
 19 50  1  0
 19 51  1  0
 20 52  1  0
 20 53  1  0
 23 54  1  0
 24 55  1  0
 29 56  1  0
 30 57  1  0
 30 58  1  0
 31 59  1  0
 31 60  1  0
 32 61  1  0
 33 62  1  0
 34 63  1  0
 34 64  1  0
 35 65  1  0
 35 66  1  0
M  END
> <Name>
Molecule

> <AbsoluteEnergy>
59.1168

> <Clean Energy>
221.807

> <ConfNumber>
55

> <MOL_NUMBER>
3

> <RelativeEnergy>
13.9349

> <POSE_NUMBER>
69

> <LibDockScore>
100.1636

> <HotSpots>
-4.53,-24.52,46.19,A,17,1
-4.73,-22.32,50.38,A,46,8
1.87,-25.32,48.38,A,30,16

$$$$
Molecule
  SciTegic05072616053D

 66 70  0  0  0  0            999 V2000
   -3.7324  -23.4353   48.2663 C   0  0  0  1  0  0
   -2.5682  -22.9958   49.1817 C   0  0  0  1  0  0
   -2.9340  -22.4681   50.5855 C   0  0  0  1  0  0
   -1.2942  -23.8306   49.1245 C   0  0  0  1  0  0
   -0.2014  -23.1628   48.5123 C   0  0  0  1  0  0
    1.0241  -23.7935   48.2832 C   0  0  0  1  0  0
    1.1909  -25.1228   48.6581 C   0  0  0  1  0  0
    0.1459  -25.8011   49.2930 C   0  0  0  1  0  0
   -1.0980  -25.1813   49.5984 C   0  0  0  1  0  0
   -2.0961  -26.0496   50.3911 C   0  0  0  1  0  0
   -1.5308  -26.3672   51.8017 C   0  0  0  1  0  0
   -1.2437  -25.4415   52.5270 O   0  0  0  1  0  0
   -1.3608  -27.6596   52.2650 N   0  0  0  1  0  0
   -1.2269  -28.0546   53.6819 C   0  0  0  1  0  0
   -0.9199  -27.2455   54.7705 C   0  0  0  1  0  0
   -0.9701  -28.1198   55.8532 C   0  0  0  1  0  0
   -1.2856  -29.3737   55.4165 N   0  0  0  1  0  0
   -1.4330  -29.3302   54.1123 O   0  0  0  1  0  0
   -2.4493  -27.3238   49.5414 C   0  0  0  1  0  0
   -3.8221  -27.9674   49.8730 C   0  0  0  1  0  0
   -4.2173  -27.7092   51.2854 N   0  0  0  1  0  0
   -4.3348  -28.7111   52.2491 C   0  0  0  1  0  0
   -5.0583  -28.4829   53.4421 C   0  0  0  1  0  0
   -5.0962  -29.4552   54.4561 C   0  0  0  1  0  0
   -4.4199  -30.6761   54.2905 C   0  0  0  1  0  0
   -4.4132  -31.6993   55.3984 C   0  0  0  1  0  0
   -5.2194  -32.9453   55.0638 C   0  0  0  1  0  0
   -6.2343  -33.1685   55.6798 O   0  0  0  1  0  0
   -4.7959  -33.7665   54.1030 O   0  0  0  1  0  0
   -4.3963  -31.2153   56.8410 C   0  0  0  1  0  0
   -3.1646  -31.8584   56.2543 C   0  0  0  1  0  0
   -3.7445  -30.9363   53.0875 C   0  0  0  1  0  0
   -3.7057  -29.9659   52.0757 C   0  0  0  1  0  0
   -4.3845  -26.2640   51.6280 C   0  0  0  1  0  0
   -3.4454  -25.3618   50.7812 C   0  0  0  1  0  0
   -4.3873  -22.5687   48.1758 H   0  0
   -4.2762  -24.2016   48.8186 H   0  0
   -3.3972  -23.7954   47.2936 H   0  0
   -2.2799  -22.0824   48.6614 H   0  0
   -3.5022  -23.2639   51.0671 H   0  0
   -3.6132  -21.6310   50.4243 H   0  0
   -2.0625  -22.1779   51.1723 H   0  0
   -0.3225  -22.1224   48.2106 H   0  0
    1.8432  -23.2482   47.8143 H   0  0
    2.1327  -25.6337   48.4577 H   0  0
    0.2900  -26.8468   49.5649 H   0  0
   -1.3231  -28.4401   51.5341 H   0  0
   -0.6935  -26.1793   54.7752 H   0  0
   -0.7855  -27.8445   56.8916 H   0  0
   -2.4368  -27.0544   48.4853 H   0  0
   -1.6696  -28.0711   49.6891 H   0  0
   -4.5815  -27.5554   49.2084 H   0  0
   -3.7639  -29.0435   49.7094 H   0  0
   -5.5926  -27.5425   53.5769 H   0  0
   -5.6518  -29.2619   55.3738 H   0  0
   -3.8223  -34.0354   54.3899 H   0  0
   -4.9331  -31.8991   57.4986 H   0  0
   -4.2967  -30.1313   56.8973 H   0  0
   -2.4070  -31.1178   55.9979 H   0  0
   -3.0443  -32.8859   56.5977 H   0  0
   -3.2487  -31.8956   52.9394 H   0  0
   -3.1838  -30.1816   51.1434 H   0  0
   -5.4190  -25.9714   51.4485 H   0  0
   -4.1625  -26.1182   52.6851 H   0  0
   -3.2286  -24.4538   51.3440 H   0  0
   -3.9680  -25.0669   49.8712 H   0  0
  1  2  1  0
  2  3  1  0
  2  4  1  0
  4  5  2  0
  4  9  1  0
  5  6  1  0
  6  7  2  0
  7  8  1  0
  8  9  2  0
  9 10  1  0
 10 11  1  0
 10 19  1  0
 10 35  1  0
 11 12  2  0
 11 13  1  0
 13 14  1  0
 14 15  2  0
 14 18  1  0
 15 16  1  0
 16 17  2  0
 17 18  1  0
 19 20  1  0
 20 21  1  0
 21 22  1  0
 21 34  1  0
 22 23  2  0
 22 33  1  0
 23 24  1  0
 24 25  2  0
 25 26  1  0
 25 32  1  0
 26 27  1  0
 26 30  1  0
 26 31  1  0
 27 28  2  0
 27 29  1  0
 30 31  1  0
 32 33  2  0
 34 35  1  0
  1 36  1  0
  1 37  1  0
  1 38  1  0
  2 39  1  0
  3 40  1  0
  3 41  1  0
  3 42  1  0
  5 43  1  0
  6 44  1  0
  7 45  1  0
  8 46  1  0
 13 47  1  0
 15 48  1  0
 16 49  1  0
 19 50  1  0
 19 51  1  0
 20 52  1  0
 20 53  1  0
 23 54  1  0
 24 55  1  0
 29 56  1  0
 30 57  1  0
 30 58  1  0
 31 59  1  0
 31 60  1  0
 32 61  1  0
 33 62  1  0
 34 63  1  0
 34 64  1  0
 35 65  1  0
 35 66  1  0
M  END
> <Name>
Molecule

> <AbsoluteEnergy>
64.9686

> <Clean Energy>
221.807

> <ConfNumber>
78

> <MOL_NUMBER>
3

> <RelativeEnergy>
19.7868

> <POSE_NUMBER>
70

> <LibDockScore>
99.9006

> <HotSpots>
-2.93,-26.32,45.98,A,15,1
-0.93,-23.32,46.98,A,25,5
-3.33,-33.72,54.98,P,58,29

$$$$
Molecule
  SciTegic05072616053D

 66 70  0  0  0  0            999 V2000
   -6.6919  -22.0575   50.2854 C   0  0  0  1  0  0
   -5.8280  -23.1896   49.6900 C   0  0  0  1  0  0
   -5.7745  -23.0884   48.1536 C   0  0  0  1  0  0
   -4.4430  -23.2478   50.2933 C   0  0  0  1  0  0
   -3.5695  -22.1812   49.9771 C   0  0  0  1  0  0
   -2.3092  -22.0682   50.5754 C   0  0  0  1  0  0
   -1.8982  -23.0225   51.5078 C   0  0  0  1  0  0
   -2.7276  -24.1078   51.7988 C   0  0  0  1  0  0
   -3.9858  -24.2920   51.1639 C   0  0  0  1  0  0
   -4.7770  -25.5727   51.4801 C   0  0  0  1  0  0
   -3.8728  -26.8300   51.3785 C   0  0  0  1  0  0
   -3.7669  -27.5894   52.3136 O   0  0  0  1  0  0
   -3.1792  -27.0846   50.2043 N   0  0  0  1  0  0
   -2.2654  -28.2206   49.9588 C   0  0  0  1  0  0
   -2.0789  -29.3556   50.7393 C   0  0  0  1  0  0
   -1.1109  -30.0786   50.0445 C   0  0  0  1  0  0
   -0.7595  -29.4035   48.9122 N   0  0  0  1  0  0
   -1.4575  -28.2926   48.8637 O   0  0  0  1  0  0
   -5.9679  -25.9257   50.5035 C   0  0  0  1  0  0
   -6.7085  -27.2393   50.9120 C   0  0  0  1  0  0
   -6.6924  -27.4005   52.3994 N   0  0  0  1  0  0
   -6.4776  -28.5957   53.0768 C   0  0  0  1  0  0
   -6.8202  -28.7204   54.4440 C   0  0  0  1  0  0
   -6.3682  -29.8181   55.1932 C   0  0  0  1  0  0
   -5.5851  -30.8087   54.5735 C   0  0  0  1  0  0
   -4.9096  -31.8727   55.3962 C   0  0  0  1  0  0
   -3.9061  -31.2381   56.3551 C   0  0  0  1  0  0
   -2.7838  -31.0104   55.9637 O   0  0  0  1  0  0
   -4.2768  -30.9179   57.5953 O   0  0  0  1  0  0
   -4.5920  -33.2213   54.7716 C   0  0  0  1  0  0
   -5.6663  -33.1186   55.8263 C   0  0  0  1  0  0
   -5.3988  -30.7823   53.1804 C   0  0  0  1  0  0
   -5.8521  -29.6875   52.4332 C   0  0  0  1  0  0
   -6.7349  -26.1114   53.1286 C   0  0  0  1  0  0
   -5.3724  -25.4141   52.9295 C   0  0  0  1  0  0
   -7.7010  -22.1328   49.8802 H   0  0
   -6.2627  -21.0975   49.9985 H   0  0
   -6.7216  -22.1403   51.3718 H   0  0
   -6.3118  -24.1304   49.9527 H   0  0
   -5.3501  -22.1230   47.8778 H   0  0
   -6.7884  -23.1584   47.7595 H   0  0
   -5.1621  -23.8926   47.7459 H   0  0
   -3.8846  -21.4310   49.2518 H   0  0
   -1.6517  -21.2389   50.3145 H   0  0
   -0.9343  -22.9210   52.0064 H   0  0
   -2.3988  -24.8384   52.5379 H   0  0
   -3.3189  -26.3930   49.3999 H   0  0
   -2.5733  -29.6183   51.6745 H   0  0
   -0.6976  -31.0373   50.3580 H   0  0
   -5.5783  -26.0382   49.4917 H   0  0
   -6.6818  -25.1021   50.5006 H   0  0
   -7.7409  -27.1955   50.5650 H   0  0
   -6.2125  -28.0936   50.4513 H   0  0
   -7.4392  -27.9590   54.9186 H   0  0
   -6.6227  -29.9024   56.2497 H   0  0
   -4.6442  -31.8139   58.0010 H   0  0
   -3.6712  -33.6424   55.1751 H   0  0
   -5.0169  -33.3086   53.7716 H   0  0
   -6.6641  -33.1520   55.3887 H   0  0
   -5.3181  -33.4842   56.7923 H   0  0
   -4.9014  -31.6140   52.6814 H   0  0
   -5.7219  -29.6776   51.3511 H   0  0
   -6.9018  -26.2933   54.1903 H   0  0
   -7.5299  -25.4854   52.7234 H   0  0
   -5.4865  -24.3528   53.1501 H   0  0
   -4.6618  -25.8215   53.6486 H   0  0
  1  2  1  0
  2  3  1  0
  2  4  1  0
  4  5  2  0
  4  9  1  0
  5  6  1  0
  6  7  2  0
  7  8  1  0
  8  9  2  0
  9 10  1  0
 10 11  1  0
 10 19  1  0
 10 35  1  0
 11 12  2  0
 11 13  1  0
 13 14  1  0
 14 15  2  0
 14 18  1  0
 15 16  1  0
 16 17  2  0
 17 18  1  0
 19 20  1  0
 20 21  1  0
 21 22  1  0
 21 34  1  0
 22 23  2  0
 22 33  1  0
 23 24  1  0
 24 25  2  0
 25 26  1  0
 25 32  1  0
 26 27  1  0
 26 30  1  0
 26 31  1  0
 27 28  2  0
 27 29  1  0
 30 31  1  0
 32 33  2  0
 34 35  1  0
  1 36  1  0
  1 37  1  0
  1 38  1  0
  2 39  1  0
  3 40  1  0
  3 41  1  0
  3 42  1  0
  5 43  1  0
  6 44  1  0
  7 45  1  0
  8 46  1  0
 13 47  1  0
 15 48  1  0
 16 49  1  0
 19 50  1  0
 19 51  1  0
 20 52  1  0
 20 53  1  0
 23 54  1  0
 24 55  1  0
 29 56  1  0
 30 57  1  0
 30 58  1  0
 31 59  1  0
 31 60  1  0
 32 61  1  0
 33 62  1  0
 34 63  1  0
 34 64  1  0
 35 65  1  0
 35 66  1  0
M  END
> <Name>
Molecule

> <AbsoluteEnergy>
61.7031

> <Clean Energy>
221.807

> <ConfNumber>
67

> <MOL_NUMBER>
3

> <RelativeEnergy>
16.5212

> <POSE_NUMBER>
71

> <LibDockScore>
99.8706

> <HotSpots>
-6.13,-22.12,49.98,A,41,1
-4.13,-30.52,57.38,P,71,29
-6.33,-26.32,51.98,A,57,34

$$$$
Molecule
  SciTegic05072616053D

 66 70  0  0  0  0            999 V2000
   -2.2801  -23.5633   47.5167 C   0  0  0  1  0  0
   -3.0129  -24.9151   47.6273 C   0  0  0  1  0  0
   -3.9533  -25.1500   46.4294 C   0  0  0  1  0  0
   -3.7338  -25.0574   48.9496 C   0  0  0  1  0  0
   -4.8542  -24.2189   49.1413 C   0  0  0  1  0  0
   -5.5836  -24.2426   50.3336 C   0  0  0  1  0  0
   -5.2048  -25.1126   51.3578 C   0  0  0  1  0  0
   -4.1056  -25.9656   51.1827 C   0  0  0  1  0  0
   -3.3430  -25.9678   49.9868 C   0  0  0  1  0  0
   -2.1334  -26.9125   49.8454 C   0  0  0  1  0  0
   -0.9118  -26.0870   49.4292 C   0  0  0  1  0  0
   -0.4470  -26.1623   48.3150 O   0  0  0  1  0  0
   -0.3551  -25.2534   50.3775 N   0  0  0  1  0  0
    0.9876  -24.6549   50.3300 C   0  0  0  1  0  0
    1.8572  -24.5805   49.2509 C   0  0  0  1  0  0
    2.9623  -23.9136   49.7737 C   0  0  0  1  0  0
    2.7391  -23.6212   51.0882 N   0  0  0  1  0  0
    1.5507  -24.0671   51.4139 O   0  0  0  1  0  0
   -1.6544  -27.6275   51.1731 C   0  0  0  1  0  0
   -2.3245  -28.9825   51.5004 C   0  0  0  1  0  0
   -3.6735  -29.0504   50.8921 N   0  0  0  1  0  0
   -4.8183  -29.1018   51.6796 C   0  0  0  1  0  0
   -5.9911  -28.4264   51.2854 C   0  0  0  1  0  0
   -7.0916  -28.3468   52.1484 C   0  0  0  1  0  0
   -7.0632  -28.9572   53.4215 C   0  0  0  1  0  0
   -8.2301  -28.7694   54.3919 C   0  0  0  1  0  0
   -8.0324  -29.3597   55.7905 C   0  0  0  1  0  0
   -7.0123  -29.0974   56.3874 O   0  0  0  1  0  0
   -8.9765  -30.1418   56.3243 O   0  0  0  1  0  0
   -8.9576  -27.4292   54.3736 C   0  0  0  1  0  0
   -9.6555  -28.6726   53.8704 C   0  0  0  1  0  0
   -5.9284  -29.7204   53.7694 C   0  0  0  1  0  0
   -4.8220  -29.7962   52.9080 C   0  0  0  1  0  0
   -3.6812  -28.9489   49.4001 C   0  0  0  1  0  0
   -2.4883  -28.0973   48.8890 C   0  0  0  1  0  0
   -3.0239  -22.7676   47.4752 H   0  0
   -1.7024  -23.5562   46.5924 H   0  0
   -1.6209  -23.4163   48.3722 H   0  0
   -2.2543  -25.6972   47.5963 H   0  0
   -3.3615  -25.1296   45.5143 H   0  0
   -4.6830  -24.3410   46.3970 H   0  0
   -4.4612  -26.1096   46.5263 H   0  0
   -5.1560  -23.5399   48.3438 H   0  0
   -6.4435  -23.5854   50.4630 H   0  0
   -5.7635  -25.1288   52.2936 H   0  0
   -3.8295  -26.6460   51.9882 H   0  0
   -0.9585  -25.0198   51.2297 H   0  0
    1.7104  -24.9543   48.2376 H   0  0
    3.8664  -23.6636   49.2186 H   0  0
   -0.5771  -27.7823   51.1134 H   0  0
   -1.8208  -26.9507   52.0111 H   0  0
   -1.7109  -29.7933   51.1078 H   0  0
   -2.4109  -29.0923   52.5814 H   0  0
   -6.0421  -27.9621   50.3006 H   0  0
   -7.9834  -27.8055   51.8325 H   0  0
   -9.1095  -30.9130   55.6243 H   0  0
   -8.6152  -26.8000   53.5520 H   0  0
   -9.3028  -27.1491   55.3688 H   0  0
  -10.3743  -29.0517   54.5968 H   0  0
   -9.6857  -28.7037   52.7813 H   0  0
   -5.9104  -30.2573   54.7178 H   0  0
   -3.9578  -30.3972   53.1909 H   0  0
   -3.6171  -29.9493   48.9721 H   0  0
   -4.6148  -28.4893   49.0756 H   0  0
   -2.7345  -27.6977   47.9052 H   0  0
   -1.6152  -28.7407   48.7804 H   0  0
  1  2  1  0
  2  3  1  0
  2  4  1  0
  4  5  2  0
  4  9  1  0
  5  6  1  0
  6  7  2  0
  7  8  1  0
  8  9  2  0
  9 10  1  0
 10 11  1  0
 10 19  1  0
 10 35  1  0
 11 12  2  0
 11 13  1  0
 13 14  1  0
 14 15  2  0
 14 18  1  0
 15 16  1  0
 16 17  2  0
 17 18  1  0
 19 20  1  0
 20 21  1  0
 21 22  1  0
 21 34  1  0
 22 23  2  0
 22 33  1  0
 23 24  1  0
 24 25  2  0
 25 26  1  0
 25 32  1  0
 26 27  1  0
 26 30  1  0
 26 31  1  0
 27 28  2  0
 27 29  1  0
 30 31  1  0
 32 33  2  0
 34 35  1  0
  1 36  1  0
  1 37  1  0
  1 38  1  0
  2 39  1  0
  3 40  1  0
  3 41  1  0
  3 42  1  0
  5 43  1  0
  6 44  1  0
  7 45  1  0
  8 46  1  0
 13 47  1  0
 15 48  1  0
 16 49  1  0
 19 50  1  0
 19 51  1  0
 20 52  1  0
 20 53  1  0
 23 54  1  0
 24 55  1  0
 29 56  1  0
 30 57  1  0
 30 58  1  0
 31 59  1  0
 31 60  1  0
 32 61  1  0
 33 62  1  0
 34 63  1  0
 34 64  1  0
 35 65  1  0
 35 66  1  0
M  END
> <Name>
Molecule

> <AbsoluteEnergy>
58.9415

> <Clean Energy>
221.807

> <ConfNumber>
54

> <MOL_NUMBER>
3

> <RelativeEnergy>
13.7596

> <POSE_NUMBER>
72

> <LibDockScore>
99.3537

> <HotSpots>
-2.53,-22.32,48.19,A,29,1
-5.13,-23.32,51.38,A,54,6
2.67,-22.92,49.98,A,39,16

$$$$
Molecule
  SciTegic05072616053D

 66 70  0  0  0  0            999 V2000
   -2.8721  -28.7400   52.1768 C   0  0  0  1  0  0
   -3.8005  -27.8157   52.9942 C   0  0  0  1  0  0
   -3.0011  -26.9279   53.9679 C   0  0  0  1  0  0
   -4.7226  -27.0013   52.1077 C   0  0  0  1  0  0
   -4.1250  -25.9793   51.3352 C   0  0  0  1  0  0
   -4.8882  -25.1782   50.4774 C   0  0  0  1  0  0
   -6.2654  -25.3913   50.3700 C   0  0  0  1  0  0
   -6.8783  -26.4028   51.1222 C   0  0  0  1  0  0
   -6.1383  -27.2240   52.0103 C   0  0  0  1  0  0
   -6.8435  -28.3186   52.8246 C   0  0  0  1  0  0
   -5.9225  -29.5511   52.8517 C   0  0  0  1  0  0
   -5.1443  -29.7362   51.9392 O   0  0  0  1  0  0
   -5.9464  -30.4342   53.9093 N   0  0  0  1  0  0
   -4.9792  -31.5376   54.0743 C   0  0  0  1  0  0
   -3.9140  -31.8807   53.2453 C   0  0  0  1  0  0
   -3.3256  -32.9573   53.9006 C   0  0  0  1  0  0
   -4.0227  -33.2327   55.0411 N   0  0  0  1  0  0
   -5.0203  -32.3829   55.1341 O   0  0  0  1  0  0
   -8.1820  -28.8222   52.1772 C   0  0  0  1  0  0
   -9.0285  -29.7666   53.0649 C   0  0  0  1  0  0
   -9.1755  -29.2477   54.4546 N   0  0  0  1  0  0
   -9.7370  -30.0167   55.4722 C   0  0  0  1  0  0
   -9.4195  -29.7593   56.8248 C   0  0  0  1  0  0
   -9.9813  -30.5302   57.8555 C   0  0  0  1  0  0
  -10.8570  -31.5912   57.5571 C   0  0  0  1  0  0
  -11.4270  -32.4545   58.6711 C   0  0  0  1  0  0
  -12.9265  -32.2878   58.9440 C   0  0  0  1  0  0
  -13.5843  -33.2567   59.2611 O   0  0  0  1  0  0
  -13.5043  -31.0884   58.8538 O   0  0  0  1  0  0
  -10.5449  -32.7825   59.8690 C   0  0  0  1  0  0
  -10.8156  -33.8415   58.8254 C   0  0  0  1  0  0
  -11.1841  -31.8524   56.2139 C   0  0  0  1  0  0
  -10.6312  -31.0727   55.1807 C   0  0  0  1  0  0
   -8.6632  -27.8650   54.6753 C   0  0  0  1  0  0
   -7.1856  -27.7367   54.2532 C   0  0  0  1  0  0
   -2.3120  -29.3694   52.8683 H   0  0
   -2.1723  -28.1210   51.6153 H   0  0
   -3.4555  -29.3589   51.4951 H   0  0
   -4.4408  -28.4594   53.5974 H   0  0
   -2.3002  -26.3239   53.3917 H   0  0
   -2.4399  -27.5723   54.6447 H   0  0
   -3.6732  -26.2837   54.5348 H   0  0
   -3.0504  -25.8119   51.4087 H   0  0
   -4.4098  -24.3907   49.8951 H   0  0
   -6.8626  -24.7711   49.7015 H   0  0
   -7.9519  -26.5623   51.0219 H   0  0
   -6.7076  -30.3137   54.6516 H   0  0
   -3.6130  -31.4161   52.3063 H   0  0
   -2.4438  -33.4977   53.5563 H   0  0
   -7.9476  -29.3385   51.2463 H   0  0
   -8.7893  -27.9563   51.9137 H   0  0
  -10.0177  -29.8818   52.6219 H   0  0
   -8.5531  -30.7468   53.1000 H   0  0
   -8.7297  -28.9521   57.0714 H   0  0
   -9.7376  -30.3054   58.8938 H   0  0
  -13.2771  -30.7630   57.8817 H   0  0
  -11.1374  -32.9445   60.7694 H   0  0
   -9.5481  -32.3554   59.7596 H   0  0
   -9.9625  -33.9786   58.1609 H   0  0
  -11.5529  -34.5666   59.1699 H   0  0
  -11.8703  -32.6640   55.9718 H   0  0
  -10.8951  -31.2852   54.1447 H   0  0
   -8.7570  -27.6117   55.7313 H   0  0
   -9.2634  -27.1639   54.0953 H   0  0
   -6.9080  -26.6829   54.2778 H   0  0
   -6.5676  -28.2440   54.9941 H   0  0
  1  2  1  0
  2  3  1  0
  2  4  1  0
  4  5  2  0
  4  9  1  0
  5  6  1  0
  6  7  2  0
  7  8  1  0
  8  9  2  0
  9 10  1  0
 10 11  1  0
 10 19  1  0
 10 35  1  0
 11 12  2  0
 11 13  1  0
 13 14  1  0
 14 15  2  0
 14 18  1  0
 15 16  1  0
 16 17  2  0
 17 18  1  0
 19 20  1  0
 20 21  1  0
 21 22  1  0
 21 34  1  0
 22 23  2  0
 22 33  1  0
 23 24  1  0
 24 25  2  0
 25 26  1  0
 25 32  1  0
 26 27  1  0
 26 30  1  0
 26 31  1  0
 27 28  2  0
 27 29  1  0
 30 31  1  0
 32 33  2  0
 34 35  1  0
  1 36  1  0
  1 37  1  0
  1 38  1  0
  2 39  1  0
  3 40  1  0
  3 41  1  0
  3 42  1  0
  5 43  1  0
  6 44  1  0
  7 45  1  0
  8 46  1  0
 13 47  1  0
 15 48  1  0
 16 49  1  0
 19 50  1  0
 19 51  1  0
 20 52  1  0
 20 53  1  0
 23 54  1  0
 24 55  1  0
 29 56  1  0
 30 57  1  0
 30 58  1  0
 31 59  1  0
 31 60  1  0
 32 61  1  0
 33 62  1  0
 34 63  1  0
 34 64  1  0
 35 65  1  0
 35 66  1  0
M  END
> <Name>
Molecule

> <AbsoluteEnergy>
52.4335

> <Clean Energy>
221.807

> <ConfNumber>
22

> <MOL_NUMBER>
3

> <RelativeEnergy>
7.25166

> <POSE_NUMBER>
73

> <LibDockScore>
99.2086

> <HotSpots>
-3.93,-33.72,53.78,A,66,16
-9.53,-30.12,52.78,A,62,20
-8.73,-28.12,54.38,A,70,34

$$$$
Molecule
  SciTegic05072616053D

 66 70  0  0  0  0            999 V2000
   -2.6309  -23.0893   49.3199 C   0  0  0  1  0  0
   -2.6567  -23.6173   50.7678 C   0  0  0  1  0  0
   -2.6149  -22.4598   51.7854 C   0  0  0  1  0  0
   -3.8294  -24.5414   51.0079 C   0  0  0  1  0  0
   -5.1128  -23.9602   50.9057 C   0  0  0  1  0  0
   -6.2705  -24.7335   51.0348 C   0  0  0  1  0  0
   -6.1598  -26.1062   51.2579 C   0  0  0  1  0  0
   -4.8970  -26.6976   51.3886 C   0  0  0  1  0  0
   -3.7035  -25.9401   51.3091 C   0  0  0  1  0  0
   -2.3315  -26.6166   51.5093 C   0  0  0  1  0  0
   -1.3862  -25.9857   50.4834 C   0  0  0  1  0  0
   -0.3663  -25.4145   50.7938 O   0  0  0  1  0  0
   -1.7662  -26.1173   49.1603 N   0  0  0  1  0  0
   -0.9674  -25.8224   47.9703 C   0  0  0  1  0  0
   -1.5147  -25.8262   46.7001 C   0  0  0  1  0  0
   -0.4434  -25.4927   45.8866 C   0  0  0  1  0  0
    0.6725  -25.3145   46.6541 N   0  0  0  1  0  0
    0.3520  -25.5144   47.9151 O   0  0  0  1  0  0
   -2.1939  -28.1677   51.1551 C   0  0  0  1  0  0
   -2.3910  -29.1406   52.3326 C   0  0  0  1  0  0
   -3.4646  -28.5703   53.1613 N   0  0  0  1  0  0
   -4.7824  -29.0077   53.0732 C   0  0  0  1  0  0
   -5.8493  -28.3556   53.7312 C   0  0  0  1  0  0
   -7.1799  -28.7461   53.4793 C   0  0  0  1  0  0
   -7.4535  -29.7979   52.5810 C   0  0  0  1  0  0
   -8.8677  -30.1745   52.2020 C   0  0  0  1  0  0
   -9.3829  -29.3869   50.9921 C   0  0  0  1  0  0
  -10.2437  -29.8724   50.2944 O   0  0  0  1  0  0
   -8.8660  -28.1836   50.7240 O   0  0  0  1  0  0
   -9.2601  -31.6393   52.3124 C   0  0  0  1  0  0
   -9.8532  -30.6303   53.2673 C   0  0  0  1  0  0
   -6.3907  -30.5038   51.9967 C   0  0  0  1  0  0
   -5.0739  -30.1202   52.2512 C   0  0  0  1  0  0
   -3.0112  -27.3628   53.9125 C   0  0  0  1  0  0
   -1.9757  -26.5657   53.0424 C   0  0  0  1  0  0
   -1.7194  -22.5093   49.1751 H   0  0
   -3.4931  -22.4398   49.1688 H   0  0
   -2.6610  -23.9194   48.6141 H   0  0
   -1.7551  -24.2116   50.9164 H   0  0
   -3.4772  -21.8147   51.6172 H   0  0
   -1.7035  -21.8842   51.6235 H   0  0
   -2.6338  -22.8500   52.8030 H   0  0
   -5.2022  -22.8894   50.7229 H   0  0
   -7.2529  -24.2670   50.9616 H   0  0
   -7.0579  -26.7196   51.3306 H   0  0
   -4.8311  -27.7726   51.5564 H   0  0
   -2.7591  -26.4763   48.9866 H   0  0
   -2.5429  -26.0403   46.4085 H   0  0
   -0.4848  -25.3887   44.8024 H   0  0
   -1.2073  -28.3415   50.7255 H   0  0
   -2.9191  -28.4133   50.3793 H   0  0
   -1.4716  -29.2114   52.9137 H   0  0
   -2.6912  -30.1193   51.9582 H   0  0
   -5.6429  -27.5491   54.4348 H   0  0
   -8.0005  -28.2331   53.9808 H   0  0
   -7.8330  -28.3479   50.6322 H   0  0
   -8.4759  -32.2292   52.7869 H   0  0
   -9.9696  -31.9227   51.5350 H   0  0
  -10.8787  -30.3768   52.9985 H   0  0
   -9.3839  -30.6821   54.2497 H   0  0
   -6.5942  -31.3524   51.3436 H   0  0
   -4.2556  -30.6881   51.8086 H   0  0
   -2.5402  -27.6698   54.8463 H   0  0
   -3.8690  -26.7263   54.1297 H   0  0
   -1.9584  -25.5268   53.3718 H   0  0
   -0.9827  -26.9892   53.1930 H   0  0
  1  2  1  0
  2  3  1  0
  2  4  1  0
  4  5  2  0
  4  9  1  0
  5  6  1  0
  6  7  2  0
  7  8  1  0
  8  9  2  0
  9 10  1  0
 10 11  1  0
 10 19  1  0
 10 35  1  0
 11 12  2  0
 11 13  1  0
 13 14  1  0
 14 15  2  0
 14 18  1  0
 15 16  1  0
 16 17  2  0
 17 18  1  0
 19 20  1  0
 20 21  1  0
 21 22  1  0
 21 34  1  0
 22 23  2  0
 22 33  1  0
 23 24  1  0
 24 25  2  0
 25 26  1  0
 25 32  1  0
 26 27  1  0
 26 30  1  0
 26 31  1  0
 27 28  2  0
 27 29  1  0
 30 31  1  0
 32 33  2  0
 34 35  1  0
  1 36  1  0
  1 37  1  0
  1 38  1  0
  2 39  1  0
  3 40  1  0
  3 41  1  0
  3 42  1  0
  5 43  1  0
  6 44  1  0
  7 45  1  0
  8 46  1  0
 13 47  1  0
 15 48  1  0
 16 49  1  0
 19 50  1  0
 19 51  1  0
 20 52  1  0
 20 53  1  0
 23 54  1  0
 24 55  1  0
 29 56  1  0
 30 57  1  0
 30 58  1  0
 31 59  1  0
 31 60  1  0
 32 61  1  0
 33 62  1  0
 34 63  1  0
 34 64  1  0
 35 65  1  0
 35 66  1  0
M  END
> <Name>
Molecule

> <AbsoluteEnergy>
64.3325

> <Clean Energy>
221.807

> <ConfNumber>
76

> <MOL_NUMBER>
3

> <RelativeEnergy>
19.1507

> <POSE_NUMBER>
74

> <LibDockScore>
98.1367

> <HotSpots>
-5.13,-23.32,51.38,A,54,5
0.27,-24.92,46.38,A,19,16
-9.53,-30.12,52.78,A,62,31

$$$$
Molecule
  SciTegic05072616053D

 66 70  0  0  0  0            999 V2000
   -5.7289  -31.7845   53.4372 C   0  0  0  1  0  0
   -5.8614  -31.0843   52.0763 C   0  0  0  1  0  0
   -4.8428  -29.9508   51.8577 C   0  0  0  1  0  0
   -7.2675  -30.7932   51.5506 C   0  0  0  1  0  0
   -7.6390  -31.6066   50.4481 C   0  0  0  1  0  0
   -8.8905  -31.5160   49.8380 C   0  0  0  1  0  0
   -9.8232  -30.6056   50.3240 C   0  0  0  1  0  0
   -9.4905  -29.7788   51.3994 C   0  0  0  1  0  0
   -8.2184  -29.8175   52.0380 C   0  0  0  1  0  0
   -7.9782  -28.8252   53.1935 C   0  0  0  1  0  0
   -6.9845  -27.7181   52.8218 C   0  0  0  1  0  0
   -5.8782  -27.7006   53.3116 O   0  0  0  1  0  0
   -7.3508  -26.7181   51.9389 N   0  0  0  1  0  0
   -6.4858  -25.5604   51.6312 C   0  0  0  1  0  0
   -6.8244  -24.5260   50.7695 C   0  0  0  1  0  0
   -5.7068  -23.6964   50.7889 C   0  0  0  1  0  0
   -4.7655  -24.2214   51.6234 N   0  0  0  1  0  0
   -5.2382  -25.3391   52.1312 O   0  0  0  1  0  0
   -7.6009  -29.6455   54.4721 C   0  0  0  1  0  0
   -7.4427  -28.8180   55.7643 C   0  0  0  1  0  0
   -8.6659  -28.0107   56.0159 N   0  0  0  1  0  0
   -9.4183  -28.1042   57.1837 C   0  0  0  1  0  0
   -9.8083  -26.9398   57.8839 C   0  0  0  1  0  0
  -10.6364  -27.0251   59.0142 C   0  0  0  1  0  0
  -11.0785  -28.2768   59.4714 C   0  0  0  1  0  0
  -12.0406  -28.3737   60.6326 C   0  0  0  1  0  0
  -13.4900  -28.1133   60.2186 C   0  0  0  1  0  0
  -13.9739  -28.7444   59.3032 O   0  0  0  1  0  0
  -14.1966  -27.1932   60.8752 O   0  0  0  1  0  0
  -11.5696  -27.9401   62.0140 C   0  0  0  1  0  0
  -11.7881  -29.4055   61.7209 C   0  0  0  1  0  0
  -10.6442  -29.4471   58.8266 C   0  0  0  1  0  0
   -9.8256  -29.3619   57.6893 C   0  0  0  1  0  0
   -9.0627  -27.1413   54.8752 C   0  0  0  1  0  0
   -9.2618  -28.0218   53.6257 C   0  0  0  1  0  0
   -5.8523  -31.0262   54.2104 H   0  0
   -4.7166  -32.1829   53.5046 H   0  0
   -6.4669  -32.5786   53.5510 H   0  0
   -5.5696  -31.8846   51.3962 H   0  0
   -3.8461  -30.3816   51.9530 H   0  0
   -4.9819  -29.2248   52.6588 H   0  0
   -4.9712  -29.4817   50.8822 H   0  0
   -6.9193  -32.3293   50.0636 H   0  0
   -9.1352  -32.1530   48.9880 H   0  0
  -10.8105  -30.5377   49.8671 H   0  0
  -10.2367  -29.0736   51.7655 H   0  0
   -8.3037  -26.7861   51.4570 H   0  0
   -7.7496  -24.3942   50.2085 H   0  0
   -5.6008  -22.7702   50.2241 H   0  0
   -6.6675  -30.1760   54.2839 H   0  0
   -8.3660  -30.4040   54.6376 H   0  0
   -6.5857  -28.1518   55.6652 H   0  0
   -7.2754  -29.4904   56.6057 H   0  0
   -9.4620  -25.9644   57.5422 H   0  0
  -10.9368  -26.1176   59.5380 H   0  0
  -13.6357  -26.3094   60.7934 H   0  0
  -12.3864  -27.5213   62.6018 H   0  0
  -10.5104  -27.6830   62.0122 H   0  0
  -10.8450  -29.9293   61.5648 H   0  0
  -12.7212  -29.7673   62.1528 H   0  0
  -10.9433  -30.4226   59.2100 H   0  0
   -9.5000  -30.2745   57.1900 H   0  0
   -9.9955  -26.6299   55.1129 H   0  0
   -8.2789  -26.4086   54.6832 H   0  0
   -9.5756  -27.3875   52.7967 H   0  0
  -10.0705  -28.7265   53.8194 H   0  0
  1  2  1  0
  2  3  1  0
  2  4  1  0
  4  5  2  0
  4  9  1  0
  5  6  1  0
  6  7  2  0
  7  8  1  0
  8  9  2  0
  9 10  1  0
 10 11  1  0
 10 19  1  0
 10 35  1  0
 11 12  2  0
 11 13  1  0
 13 14  1  0
 14 15  2  0
 14 18  1  0
 15 16  1  0
 16 17  2  0
 17 18  1  0
 19 20  1  0
 20 21  1  0
 21 22  1  0
 21 34  1  0
 22 23  2  0
 22 33  1  0
 23 24  1  0
 24 25  2  0
 25 26  1  0
 25 32  1  0
 26 27  1  0
 26 30  1  0
 26 31  1  0
 27 28  2  0
 27 29  1  0
 30 31  1  0
 32 33  2  0
 34 35  1  0
  1 36  1  0
  1 37  1  0
  1 38  1  0
  2 39  1  0
  3 40  1  0
  3 41  1  0
  3 42  1  0
  5 43  1  0
  6 44  1  0
  7 45  1  0
  8 46  1  0
 13 47  1  0
 15 48  1  0
 16 49  1  0
 19 50  1  0
 19 51  1  0
 20 52  1  0
 20 53  1  0
 23 54  1  0
 24 55  1  0
 29 56  1  0
 30 57  1  0
 30 58  1  0
 31 59  1  0
 31 60  1  0
 32 61  1  0
 33 62  1  0
 34 63  1  0
 34 64  1  0
 35 65  1  0
 35 66  1  0
M  END
> <Name>
Molecule

> <AbsoluteEnergy>
59.1168

> <Clean Energy>
221.807

> <ConfNumber>
55

> <MOL_NUMBER>
3

> <RelativeEnergy>
13.9349

> <POSE_NUMBER>
75

> <LibDockScore>
97.6886

> <HotSpots>
-7.13,-31.92,50.98,A,49,6
-5.93,-24.72,51.19,A,53,15
-8.73,-28.12,54.38,A,70,35

$$$$
Molecule
  SciTegic05072616053D

 66 70  0  0  0  0            999 V2000
   -4.9950  -32.0418   55.6803 C   0  0  0  1  0  0
   -5.1162  -31.4576   54.2581 C   0  0  0  1  0  0
   -4.8676  -32.5446   53.1938 C   0  0  0  1  0  0
   -6.4437  -30.7589   54.0643 C   0  0  0  1  0  0
   -7.6005  -31.4832   54.4332 C   0  0  0  1  0  0
   -8.8763  -30.9183   54.3302 C   0  0  0  1  0  0
   -9.0149  -29.6089   53.8683 C   0  0  0  1  0  0
   -7.8827  -28.8751   53.4882 C   0  0  0  1  0  0
   -6.5761  -29.4288   53.5433 C   0  0  0  1  0  0
   -5.3638  -28.6144   53.0483 C   0  0  0  1  0  0
   -4.2879  -28.5402   54.1502 C   0  0  0  1  0  0
   -4.5479  -28.8978   55.2804 O   0  0  0  1  0  0
   -3.0191  -28.0760   53.8697 N   0  0  0  1  0  0
   -1.8666  -28.2561   54.7719 C   0  0  0  1  0  0
   -0.6393  -27.6341   54.6006 C   0  0  0  1  0  0
    0.1221  -28.1080   55.6650 C   0  0  0  1  0  0
   -0.6299  -28.9615   56.4189 N   0  0  0  1  0  0
   -1.8269  -29.0430   55.8817 O   0  0  0  1  0  0
   -5.7317  -27.1245   52.7196 C   0  0  0  1  0  0
   -4.6465  -26.3141   51.9815 C   0  0  0  1  0  0
   -4.1110  -27.0405   50.7926 N   0  0  0  1  0  0
   -3.0747  -26.5175   50.0204 C   0  0  0  1  0  0
   -2.3382  -25.3948   50.4632 C   0  0  0  1  0  0
   -1.3094  -24.8500   49.6744 C   0  0  0  1  0  0
   -0.9883  -25.4198   48.4298 C   0  0  0  1  0  0
    0.1078  -24.8135   47.5746 C   0  0  0  1  0  0
    1.4264  -25.5870   47.6123 C   0  0  0  1  0  0
    2.1536  -25.5727   46.6429 O   0  0  0  1  0  0
    1.7570  -26.2578   48.7183 O   0  0  0  1  0  0
   -0.2742  -24.0966   46.2854 C   0  0  0  1  0  0
    0.1796  -23.2963   47.4823 C   0  0  0  1  0  0
   -1.6957  -26.5540   47.9922 C   0  0  0  1  0  0
   -2.7307  -27.0949   48.7739 C   0  0  0  1  0  0
   -4.7585  -28.3478   50.4794 C   0  0  0  1  0  0
   -4.8306  -29.2720   51.7166 C   0  0  0  1  0  0
   -3.9942  -32.4544   55.8080 H   0  0
   -5.7277  -32.8403   55.7972 H   0  0
   -5.1729  -31.2635   56.4224 H   0  0
   -4.3411  -30.7016   54.1322 H   0  0
   -5.6010  -33.3403   53.3244 H   0  0
   -3.8675  -32.9545   53.3351 H   0  0
   -4.9562  -32.1188   52.1943 H   0  0
   -7.4963  -32.5024   54.8054 H   0  0
   -9.7566  -31.4975   54.6091 H   0  0
  -10.0044  -29.1563   53.8030 H   0  0
   -8.0088  -27.8498   53.1403 H   0  0
   -2.8629  -27.5570   52.9471 H   0  0
   -0.3410  -26.9378   53.8168 H   0  0
    1.1592  -27.8389   55.8655 H   0  0
   -5.9721  -26.6116   53.6509 H   0  0
   -6.6395  -27.1160   52.1163 H   0  0
   -5.0701  -25.3639   51.6562 H   0  0
   -3.8267  -26.1049   52.6687 H   0  0
   -2.5709  -24.9456   51.4287 H   0  0
   -0.7572  -23.9802   50.0302 H   0  0
    0.9529  -26.9107   48.8905 H   0  0
   -1.3559  -24.0523   46.1583 H   0  0
    0.5119  -24.1794   45.5349 H   0  0
    1.2071  -22.9506   47.3690 H   0  0
   -0.6600  -22.8249   47.9931 H   0  0
   -1.4391  -27.0170   47.0394 H   0  0
   -3.2751  -27.9690   48.4166 H   0  0
   -4.1922  -28.8478   49.6937 H   0  0
   -5.7681  -28.1661   50.1108 H   0  0
   -5.4648  -30.1242   51.4724 H   0  0
   -3.8350  -29.6742   51.9039 H   0  0
  1  2  1  0
  2  3  1  0
  2  4  1  0
  4  5  2  0
  4  9  1  0
  5  6  1  0
  6  7  2  0
  7  8  1  0
  8  9  2  0
  9 10  1  0
 10 11  1  0
 10 19  1  0
 10 35  1  0
 11 12  2  0
 11 13  1  0
 13 14  1  0
 14 15  2  0
 14 18  1  0
 15 16  1  0
 16 17  2  0
 17 18  1  0
 19 20  1  0
 20 21  1  0
 21 22  1  0
 21 34  1  0
 22 23  2  0
 22 33  1  0
 23 24  1  0
 24 25  2  0
 25 26  1  0
 25 32  1  0
 26 27  1  0
 26 30  1  0
 26 31  1  0
 27 28  2  0
 27 29  1  0
 30 31  1  0
 32 33  2  0
 34 35  1  0
  1 36  1  0
  1 37  1  0
  1 38  1  0
  2 39  1  0
  3 40  1  0
  3 41  1  0
  3 42  1  0
  5 43  1  0
  6 44  1  0
  7 45  1  0
  8 46  1  0
 13 47  1  0
 15 48  1  0
 16 49  1  0
 19 50  1  0
 19 51  1  0
 20 52  1  0
 20 53  1  0
 23 54  1  0
 24 55  1  0
 29 56  1  0
 30 57  1  0
 30 58  1  0
 31 59  1  0
 31 60  1  0
 32 61  1  0
 33 62  1  0
 34 63  1  0
 34 64  1  0
 35 65  1  0
 35 66  1  0
M  END
> <Name>
Molecule

> <AbsoluteEnergy>
51.2165

> <Clean Energy>
221.807

> <ConfNumber>
15

> <MOL_NUMBER>
3

> <RelativeEnergy>
6.03466

> <POSE_NUMBER>
76

> <LibDockScore>
97.0918

> <HotSpots>
-4.33,-32.92,55.19,A,75,1
-1.13,-28.72,56.59,P,69,17
-0.93,-23.32,46.98,A,25,30

$$$$
Molecule
  SciTegic05072616053D

 66 70  0  0  0  0            999 V2000
   -0.2851  -26.2221   48.8632 C   0  0  0  1  0  0
   -1.4699  -26.8552   49.6245 C   0  0  0  1  0  0
   -1.3173  -28.3869   49.7224 C   0  0  0  1  0  0
   -1.6716  -26.2215   50.9830 C   0  0  0  1  0  0
   -0.5018  -25.9640   51.7336 C   0  0  0  1  0  0
   -0.5572  -25.3330   52.9805 C   0  0  0  1  0  0
   -1.7936  -24.9373   53.4965 C   0  0  0  1  0  0
   -2.9672  -25.1943   52.7759 C   0  0  0  1  0  0
   -2.9532  -25.8711   51.5283 C   0  0  0  1  0  0
   -4.2789  -26.1840   50.8126 C   0  0  0  1  0  0
   -4.3003  -25.5270   49.4253 C   0  0  0  1  0  0
   -3.7946  -26.0884   48.4810 O   0  0  0  1  0  0
   -4.8956  -24.2943   49.2458 N   0  0  0  1  0  0
   -4.9607  -23.6218   47.9313 C   0  0  0  1  0  0
   -5.5017  -22.3634   47.7188 C   0  0  0  1  0  0
   -5.3257  -22.1550   46.3526 C   0  0  0  1  0  0
   -4.7172  -23.2425   45.8000 N   0  0  0  1  0  0
   -4.4992  -24.1243   46.7529 O   0  0  0  1  0  0
   -4.5131  -27.7273   50.7000 C   0  0  0  1  0  0
   -4.7643  -28.4130   52.0488 C   0  0  0  1  0  0
   -5.9721  -27.8517   52.7074 N   0  0  0  1  0  0
   -7.0177  -28.6487   53.1689 C   0  0  0  1  0  0
   -8.1502  -28.0616   53.7821 C   0  0  0  1  0  0
   -9.2068  -28.8603   54.2530 C   0  0  0  1  0  0
   -9.1518  -30.2574   54.1229 C   0  0  0  1  0  0
  -10.2813  -31.1179   54.6348 C   0  0  0  1  0  0
  -10.1493  -31.4395   56.1138 C   0  0  0  1  0  0
   -9.9125  -32.5786   56.4488 O   0  0  0  1  0  0
  -10.3010  -30.4604   57.0054 O   0  0  0  1  0  0
  -10.8827  -32.1726   53.7161 C   0  0  0  1  0  0
  -11.6818  -30.9383   54.0625 C   0  0  0  1  0  0
   -8.0318  -30.8530   53.5132 C   0  0  0  1  0  0
   -6.9761  -30.0554   53.0388 C   0  0  0  1  0  0
   -5.9817  -26.3705   52.8487 C   0  0  0  1  0  0
   -5.5643  -25.6509   51.5393 C   0  0  0  1  0  0
   -0.2447  -26.6492   47.8612 H   0  0
    0.6382  -26.4635   49.3898 H   0  0
   -0.4085  -25.1408   48.8032 H   0  0
   -2.3723  -26.6532   49.0475 H   0  0
   -0.3868  -28.6132   50.2430 H   0  0
   -1.2698  -28.7989   48.7144 H   0  0
   -2.1609  -28.8174   50.2620 H   0  0
    0.4658  -26.2642   51.3313 H   0  0
    0.3572  -25.1514   53.5453 H   0  0
   -1.8452  -24.4289   54.4593 H   0  0
   -3.9214  -24.8640   53.1864 H   0  0
   -5.3279  -23.8054   50.0937 H   0  0
   -5.9575  -21.6944   48.4487 H   0  0
   -5.6281  -21.2599   45.8091 H   0  0
   -3.6417  -28.1841   50.2308 H   0  0
   -5.3688  -27.9078   50.0494 H   0  0
   -3.9002  -28.2643   52.6964 H   0  0
   -4.9061  -29.4819   51.8889 H   0  0
   -8.2037  -26.9783   53.8904 H   0  0
  -10.0730  -28.3929   54.7214 H   0  0
  -11.2506  -30.0574   56.8096 H   0  0
  -11.2242  -33.0431   54.2762 H   0  0
  -10.4645  -32.1123   52.7113 H   0  0
  -11.6894  -30.2207   53.2421 H   0  0
  -12.4479  -31.1510   54.8081 H   0  0
   -7.9829  -31.9369   53.4085 H   0  0
   -6.1153  -30.5273   52.5650 H   0  0
   -6.9840  -26.0466   53.1290 H   0  0
   -5.2961  -26.0840   53.6462 H   0  0
   -5.4197  -24.5936   51.7614 H   0  0
   -6.4000  -25.6999   50.8412 H   0  0
  1  2  1  0
  2  3  1  0
  2  4  1  0
  4  5  2  0
  4  9  1  0
  5  6  1  0
  6  7  2  0
  7  8  1  0
  8  9  2  0
  9 10  1  0
 10 11  1  0
 10 19  1  0
 10 35  1  0
 11 12  2  0
 11 13  1  0
 13 14  1  0
 14 15  2  0
 14 18  1  0
 15 16  1  0
 16 17  2  0
 17 18  1  0
 19 20  1  0
 20 21  1  0
 21 22  1  0
 21 34  1  0
 22 23  2  0
 22 33  1  0
 23 24  1  0
 24 25  2  0
 25 26  1  0
 25 32  1  0
 26 27  1  0
 26 30  1  0
 26 31  1  0
 27 28  2  0
 27 29  1  0
 30 31  1  0
 32 33  2  0
 34 35  1  0
  1 36  1  0
  1 37  1  0
  1 38  1  0
  2 39  1  0
  3 40  1  0
  3 41  1  0
  3 42  1  0
  5 43  1  0
  6 44  1  0
  7 45  1  0
  8 46  1  0
 13 47  1  0
 15 48  1  0
 16 49  1  0
 19 50  1  0
 19 51  1  0
 20 52  1  0
 20 53  1  0
 23 54  1  0
 24 55  1  0
 29 56  1  0
 30 57  1  0
 30 58  1  0
 31 59  1  0
 31 60  1  0
 32 61  1  0
 33 62  1  0
 34 63  1  0
 34 64  1  0
 35 65  1  0
 35 66  1  0
M  END
> <Name>
Molecule

> <AbsoluteEnergy>
45.1819

> <Clean Energy>
221.807

> <ConfNumber>
1

> <MOL_NUMBER>
3

> <RelativeEnergy>
0

> <POSE_NUMBER>
77

> <LibDockScore>
96.0756

> <HotSpots>
-3.53,-22.32,46.59,A,20,16
-8.73,-28.12,54.38,A,70,23
-9.53,-30.12,52.78,A,62,32

$$$$
Molecule
  SciTegic05072616053D

 66 70  0  0  0  0            999 V2000
  -10.4824  -30.1196   51.3753 C   0  0  0  1  0  0
   -9.4224  -30.6982   52.3345 C   0  0  0  1  0  0
   -8.4686  -31.6504   51.5744 C   0  0  0  1  0  0
  -10.0647  -31.3528   53.5408 C   0  0  0  1  0  0
  -10.8326  -32.5141   53.2781 C   0  0  0  1  0  0
  -11.5674  -33.1450   54.2857 C   0  0  0  1  0  0
  -11.5489  -32.6207   55.5799 C   0  0  0  1  0  0
  -10.7563  -31.5061   55.8718 C   0  0  0  1  0  0
   -9.9558  -30.8667   54.8899 C   0  0  0  1  0  0
   -9.0519  -29.6830   55.3035 C   0  0  0  1  0  0
   -7.5983  -29.8430   54.8093 C   0  0  0  1  0  0
   -7.1847  -29.0885   53.9591 O   0  0  0  1  0  0
   -6.7703  -30.8459   55.2931 N   0  0  0  1  0  0
   -5.5032  -31.2816   54.6539 C   0  0  0  1  0  0
   -4.9600  -30.8400   53.4455 C   0  0  0  1  0  0
   -3.8254  -31.6293   53.2840 C   0  0  0  1  0  0
   -3.6991  -32.4748   54.3521 N   0  0  0  1  0  0
   -4.6981  -32.2552   55.1776 O   0  0  0  1  0  0
   -9.7310  -28.3902   54.7130 C   0  0  0  1  0  0
   -9.2562  -27.0385   55.2903 C   0  0  0  1  0  0
   -9.3189  -27.0949   56.7730 N   0  0  0  1  0  0
  -10.2308  -26.3699   57.5573 C   0  0  0  1  0  0
  -11.2624  -25.6050   56.9487 C   0  0  0  1  0  0
  -12.2590  -24.9891   57.7255 C   0  0  0  1  0  0
  -12.2502  -25.1223   59.1272 C   0  0  0  1  0  0
  -13.3951  -24.5688   59.9497 C   0  0  0  1  0  0
  -14.6295  -25.4846   59.9937 C   0  0  0  1  0  0
  -15.3247  -25.4727   60.9873 O   0  0  0  1  0  0
  -14.9293  -26.2795   58.9532 O   0  0  0  1  0  0
  -13.0497  -23.7438   61.1832 C   0  0  0  1  0  0
  -13.6418  -23.0662   59.9688 C   0  0  0  1  0  0
  -11.1816  -25.7893   59.7505 C   0  0  0  1  0  0
  -10.1762  -26.3968   58.9748 C   0  0  0  1  0  0
   -8.3841  -28.1205   57.3169 C   0  0  0  1  0  0
   -8.8994  -29.5054   56.8676 C   0  0  0  1  0  0
  -11.0559  -30.9388   50.9415 H   0  0
   -9.9805  -29.5714   50.5780 H   0  0
  -11.1496  -29.4504   51.9186 H   0  0
   -8.8184  -29.8776   52.7216 H   0  0
   -7.9735  -31.0970   50.7764 H   0  0
   -9.0489  -32.4644   51.1400 H   0  0
   -7.7232  -32.0545   52.2594 H   0  0
  -10.8507  -32.9243   52.2684 H   0  0
  -12.1501  -34.0389   54.0632 H   0  0
  -12.1523  -33.0803   56.3627 H   0  0
  -10.7533  -31.1148   56.8891 H   0  0
   -7.0670  -31.3419   56.1935 H   0  0
   -5.3365  -30.0599   52.7839 H   0  0
   -3.1419  -31.5813   52.4363 H   0  0
   -9.5711  -28.3780   53.6349 H   0  0
  -10.8082  -28.4668   54.8607 H   0  0
   -8.2297  -26.8487   54.9765 H   0  0
   -9.9036  -26.2394   54.9291 H   0  0
  -11.2811  -25.4944   55.8645 H   0  0
  -13.0419  -24.4059   57.2407 H   0  0
  -14.0616  -26.8519   58.8053 H   0  0
  -11.9767  -23.5677   61.2587 H   0  0
  -13.7907  -23.8754   61.9717 H   0  0
  -14.6976  -22.8360   60.1116 H   0  0
  -12.8838  -22.5298   59.3980 H   0  0
  -11.1312  -25.8364   60.8383 H   0  0
   -9.3433  -26.8953   59.4706 H   0  0
   -8.3722  -28.0691   58.4056 H   0  0
   -7.3830  -27.9545   56.9189 H   0  0
   -8.2174  -30.2685   57.2425 H   0  0
   -9.8670  -29.6854   57.3361 H   0  0
  1  2  1  0
  2  3  1  0
  2  4  1  0
  4  5  2  0
  4  9  1  0
  5  6  1  0
  6  7  2  0
  7  8  1  0
  8  9  2  0
  9 10  1  0
 10 11  1  0
 10 19  1  0
 10 35  1  0
 11 12  2  0
 11 13  1  0
 13 14  1  0
 14 15  2  0
 14 18  1  0
 15 16  1  0
 16 17  2  0
 17 18  1  0
 19 20  1  0
 20 21  1  0
 21 22  1  0
 21 34  1  0
 22 23  2  0
 22 33  1  0
 23 24  1  0
 24 25  2  0
 25 26  1  0
 25 32  1  0
 26 27  1  0
 26 30  1  0
 26 31  1  0
 27 28  2  0
 27 29  1  0
 30 31  1  0
 32 33  2  0
 34 35  1  0
  1 36  1  0
  1 37  1  0
  1 38  1  0
  2 39  1  0
  3 40  1  0
  3 41  1  0
  3 42  1  0
  5 43  1  0
  6 44  1  0
  7 45  1  0
  8 46  1  0
 13 47  1  0
 15 48  1  0
 16 49  1  0
 19 50  1  0
 19 51  1  0
 20 52  1  0
 20 53  1  0
 23 54  1  0
 24 55  1  0
 29 56  1  0
 30 57  1  0
 30 58  1  0
 31 59  1  0
 31 60  1  0
 32 61  1  0
 33 62  1  0
 34 63  1  0
 34 64  1  0
 35 65  1  0
 35 66  1  0
M  END
> <Name>
Molecule

> <AbsoluteEnergy>
55.6061

> <Clean Energy>
221.807

> <ConfNumber>
37

> <MOL_NUMBER>
3

> <RelativeEnergy>
10.4242

> <POSE_NUMBER>
78

> <LibDockScore>
95.0984

> <HotSpots>
-9.33,-29.92,51.19,A,52,1
-11.53,-32.52,54.78,A,71,7
-3.33,-32.52,54.19,P,48,17

$$$$
Molecule
  SciTegic05072616053D

 66 70  0  0  0  0            999 V2000
   -8.2588  -27.8075   50.8195 C   0  0  0  1  0  0
   -7.4636  -27.1634   51.9767 C   0  0  0  1  0  0
   -6.1298  -26.4703   51.6265 C   0  0  0  1  0  0
   -7.4853  -27.9680   53.2677 C   0  0  0  1  0  0
   -8.7754  -28.0738   53.8411 C   0  0  0  1  0  0
   -8.9962  -28.7054   55.0652 C   0  0  0  1  0  0
   -7.9179  -29.2485   55.7598 C   0  0  0  1  0  0
   -6.6340  -29.1826   55.2107 C   0  0  0  1  0  0
   -6.3693  -28.5944   53.9422 C   0  0  0  1  0  0
   -4.9011  -28.6804   53.4607 C   0  0  0  1  0  0
   -4.1267  -29.8190   54.1624 C   0  0  0  1  0  0
   -3.1492  -29.5684   54.8296 O   0  0  0  1  0  0
   -4.5390  -31.1340   54.0488 N   0  0  0  1  0  0
   -3.8298  -32.2514   54.7050 C   0  0  0  1  0  0
   -4.0482  -33.5953   54.4379 C   0  0  0  1  0  0
   -3.1630  -34.2502   55.2893 C   0  0  0  1  0  0
   -2.4661  -33.3303   56.0154 N   0  0  0  1  0  0
   -2.8689  -32.1298   55.6606 O   0  0  0  1  0  0
   -4.6890  -29.0189   51.9407 C   0  0  0  1  0  0
   -3.2546  -28.7549   51.4427 C   0  0  0  1  0  0
   -2.9479  -27.3294   51.7347 N   0  0  0  1  0  0
   -2.9497  -26.3205   50.7683 C   0  0  0  1  0  0
   -2.8511  -24.9609   51.1513 C   0  0  0  1  0  0
   -3.0506  -23.9348   50.2174 C   0  0  0  1  0  0
   -3.3497  -24.2498   48.8822 C   0  0  0  1  0  0
   -3.7589  -23.1570   47.9250 C   0  0  0  1  0  0
   -5.2277  -22.7421   48.1033 C   0  0  0  1  0  0
   -5.8255  -22.2926   47.1523 O   0  0  0  1  0  0
   -5.8417  -22.8778   49.2875 O   0  0  0  1  0  0
   -2.7540  -22.0833   47.5357 C   0  0  0  1  0  0
   -3.1439  -23.1433   46.5326 C   0  0  0  1  0  0
   -3.3040  -25.5872   48.4570 C   0  0  0  1  0  0
   -3.0969  -26.6138   49.3913 C   0  0  0  1  0  0
   -2.8233  -27.0898   53.1913 C   0  0  0  1  0  0
   -4.2094  -27.3182   53.8372 C   0  0  0  1  0  0
   -7.5813  -28.5238   50.3546 H   0  0
   -8.4355  -27.0092   50.0987 H   0  0
   -9.1872  -28.2760   51.1461 H   0  0
   -8.0599  -26.2796   52.2034 H   0  0
   -6.3737  -25.7142   50.8802 H   0  0
   -5.5195  -27.2287   51.1362 H   0  0
   -5.6289  -26.0411   52.4943 H   0  0
   -9.6251  -27.6472   53.3080 H   0  0
  -10.0041  -28.7733   55.4747 H   0  0
   -8.0746  -29.7233   56.7283 H   0  0
   -5.8013  -29.5989   55.7776 H   0  0
   -5.4069  -31.3510   53.4618 H   0  0
   -4.7487  -34.0350   53.7279 H   0  0
   -3.0451  -35.3312   55.3640 H   0  0
   -4.9307  -30.0689   51.7758 H   0  0
   -5.3824  -28.4247   51.3456 H   0  0
   -2.5549  -29.3994   51.9748 H   0  0
   -3.1975  -28.9320   50.3687 H   0  0
   -2.6171  -24.7089   52.1856 H   0  0
   -2.9736  -22.8927   50.5276 H   0  0
   -5.2331  -22.3438   49.9561 H   0  0
   -1.7721  -22.2791   47.9664 H   0  0
   -3.2453  -21.1327   47.3279 H   0  0
   -3.8426  -22.7571   45.7905 H   0  0
   -2.3703  -23.9043   46.4303 H   0  0
   -3.4294  -25.8281   47.4014 H   0  0
   -3.0489  -27.6488   49.0528 H   0  0
   -2.5018  -26.0636   53.3692 H   0  0
   -2.1019  -27.7870   53.6175 H   0  0
   -4.1005  -27.2682   54.9206 H   0  0
   -4.8678  -26.4998   53.5461 H   0  0
  1  2  1  0
  2  3  1  0
  2  4  1  0
  4  5  2  0
  4  9  1  0
  5  6  1  0
  6  7  2  0
  7  8  1  0
  8  9  2  0
  9 10  1  0
 10 11  1  0
 10 19  1  0
 10 35  1  0
 11 12  2  0
 11 13  1  0
 13 14  1  0
 14 15  2  0
 14 18  1  0
 15 16  1  0
 16 17  2  0
 17 18  1  0
 19 20  1  0
 20 21  1  0
 21 22  1  0
 21 34  1  0
 22 23  2  0
 22 33  1  0
 23 24  1  0
 24 25  2  0
 25 26  1  0
 25 32  1  0
 26 27  1  0
 26 30  1  0
 26 31  1  0
 27 28  2  0
 27 29  1  0
 30 31  1  0
 32 33  2  0
 34 35  1  0
  1 36  1  0
  1 37  1  0
  1 38  1  0
  2 39  1  0
  3 40  1  0
  3 41  1  0
  3 42  1  0
  5 43  1  0
  6 44  1  0
  7 45  1  0
  8 46  1  0
 13 47  1  0
 15 48  1  0
 16 49  1  0
 19 50  1  0
 19 51  1  0
 20 52  1  0
 20 53  1  0
 23 54  1  0
 24 55  1  0
 29 56  1  0
 30 57  1  0
 30 58  1  0
 31 59  1  0
 31 60  1  0
 32 61  1  0
 33 62  1  0
 34 63  1  0
 34 64  1  0
 35 65  1  0
 35 66  1  0
M  END
> <Name>
Molecule

> <AbsoluteEnergy>
65.063

> <Clean Energy>
221.807

> <ConfNumber>
80

> <MOL_NUMBER>
3

> <RelativeEnergy>
19.8812

> <POSE_NUMBER>
79

> <LibDockScore>
93.0579

> <HotSpots>
-6.33,-26.32,51.98,A,57,3
-8.73,-28.12,54.38,A,70,5
-2.53,-22.32,48.19,A,29,30

$$$$
Molecule
  SciTegic05072616053D

 66 70  0  0  0  0            999 V2000
   -2.0776  -22.4729   49.3958 C   0  0  0  1  0  0
   -2.0679  -23.3599   48.1374 C   0  0  0  1  0  0
   -2.2682  -22.4961   46.8710 C   0  0  0  1  0  0
   -0.8417  -24.2492   48.1124 C   0  0  0  1  0  0
    0.2940  -23.7226   47.4471 C   0  0  0  1  0  0
    1.4901  -24.4384   47.3388 C   0  0  0  1  0  0
    1.5894  -25.7065   47.9096 C   0  0  0  1  0  0
    0.4929  -26.2455   48.5875 C   0  0  0  1  0  0
   -0.7410  -25.5547   48.7161 C   0  0  0  1  0  0
   -1.7948  -26.3334   49.5281 C   0  0  0  1  0  0
   -1.3165  -26.2718   50.9941 C   0  0  0  1  0  0
   -0.8305  -25.2406   51.4033 O   0  0  0  1  0  0
   -1.4190  -27.3496   51.8468 N   0  0  0  1  0  0
   -1.0728  -27.3458   53.2803 C   0  0  0  1  0  0
   -0.3051  -26.4209   53.9799 C   0  0  0  1  0  0
   -0.3065  -26.9152   55.2819 C   0  0  0  1  0  0
   -1.0465  -28.0598   55.3358 N   0  0  0  1  0  0
   -1.5004  -28.3161   54.1298 O   0  0  0  1  0  0
   -1.8994  -27.7871   48.9101 C   0  0  0  1  0  0
   -3.2598  -28.5080   49.0758 C   0  0  0  1  0  0
   -3.9132  -28.1165   50.3491 N   0  0  0  1  0  0
   -4.1514  -29.0026   51.3984 C   0  0  0  1  0  0
   -5.3483  -28.9301   52.1467 C   0  0  0  1  0  0
   -5.5298  -29.7321   53.2870 C   0  0  0  1  0  0
   -4.5194  -30.6233   53.6886 C   0  0  0  1  0  0
   -4.6286  -31.3927   54.9871 C   0  0  0  1  0  0
   -4.0014  -30.6315   56.1667 C   0  0  0  1  0  0
   -3.2037  -29.7470   55.9407 O   0  0  0  1  0  0
   -4.3255  -30.9438   57.4232 O   0  0  0  1  0  0
   -5.8375  -32.2918   55.2142 C   0  0  0  1  0  0
   -4.4827  -32.9066   54.9486 C   0  0  0  1  0  0
   -3.3740  -30.7805   52.8907 C   0  0  0  1  0  0
   -3.1878  -29.9719   51.7609 C   0  0  0  1  0  0
   -4.2100  -26.6607   50.4654 C   0  0  0  1  0  0
   -3.2681  -25.8165   49.5662 C   0  0  0  1  0  0
   -3.0328  -21.9516   49.4587 H   0  0
   -1.2730  -21.7411   49.3239 H   0  0
   -1.9359  -23.0884   50.2842 H   0  0
   -2.9133  -24.0475   48.1604 H   0  0
   -1.4630  -21.7643   46.8061 H   0  0
   -3.2229  -21.9747   46.9409 H   0  0
   -2.2602  -23.1305   45.9847 H   0  0
    0.2328  -22.7278   47.0059 H   0  0
    2.3406  -24.0072   46.8108 H   0  0
    2.5165  -26.2738   47.8276 H   0  0
    0.5884  -27.2348   49.0350 H   0  0
   -1.7807  -28.2678   51.4333 H   0  0
    0.1818  -25.5229   53.5997 H   0  0
    0.2054  -26.4575   56.1284 H   0  0
   -1.6694  -27.7279   47.8463 H   0  0
   -1.1242  -28.4101   49.3563 H   0  0
   -3.9110  -28.2446   48.2423 H   0  0
   -3.1002  -29.5862   49.0711 H   0  0
   -6.1381  -28.2459   51.8367 H   0  0
   -6.4544  -29.6629   53.8600 H   0  0
   -4.1104  -31.9686   57.5009 H   0  0
   -6.4771  -32.3319   54.3325 H   0  0
   -6.1031  -32.3443   56.2700 H   0  0
   -4.0283  -33.2883   55.8629 H   0  0
   -4.4015  -33.2744   53.9257 H   0  0
   -2.6289  -31.5324   53.1505 H   0  0
   -2.2898  -30.0917   51.1548 H   0  0
   -5.2436  -26.4812   50.1695 H   0  0
   -4.0868  -26.3509   51.5032 H   0  0
   -3.2706  -24.7871   49.9245 H   0  0
   -3.6658  -25.8092   48.5514 H   0  0
  1  2  1  0
  2  3  1  0
  2  4  1  0
  4  5  2  0
  4  9  1  0
  5  6  1  0
  6  7  2  0
  7  8  1  0
  8  9  2  0
  9 10  1  0
 10 11  1  0
 10 19  1  0
 10 35  1  0
 11 12  2  0
 11 13  1  0
 13 14  1  0
 14 15  2  0
 14 18  1  0
 15 16  1  0
 16 17  2  0
 17 18  1  0
 19 20  1  0
 20 21  1  0
 21 22  1  0
 21 34  1  0
 22 23  2  0
 22 33  1  0
 23 24  1  0
 24 25  2  0
 25 26  1  0
 25 32  1  0
 26 27  1  0
 26 30  1  0
 26 31  1  0
 27 28  2  0
 27 29  1  0
 30 31  1  0
 32 33  2  0
 34 35  1  0
  1 36  1  0
  1 37  1  0
  1 38  1  0
  2 39  1  0
  3 40  1  0
  3 41  1  0
  3 42  1  0
  5 43  1  0
  6 44  1  0
  7 45  1  0
  8 46  1  0
 13 47  1  0
 15 48  1  0
 16 49  1  0
 19 50  1  0
 19 51  1  0
 20 52  1  0
 20 53  1  0
 23 54  1  0
 24 55  1  0
 29 56  1  0
 30 57  1  0
 30 58  1  0
 31 59  1  0
 31 60  1  0
 32 61  1  0
 33 62  1  0
 34 63  1  0
 34 64  1  0
 35 65  1  0
 35 66  1  0
M  END
> <Name>
Molecule

> <AbsoluteEnergy>
63.7651

> <Clean Energy>
221.807

> <ConfNumber>
74

> <MOL_NUMBER>
3

> <RelativeEnergy>
18.5832

> <POSE_NUMBER>
80

> <LibDockScore>
89.1838

> <HotSpots>
-3.53,-22.32,46.59,A,20,3
-0.93,-23.32,46.98,A,25,5
-2.33,-30.12,55.19,P,60,28

$$$$
Molecule
  SciTegic05072616053D

 66 70  0  0  0  0            999 V2000
   -8.8394  -32.3374   56.3551 C   0  0  0  1  0  0
   -9.3929  -30.9241   56.0960 C   0  0  0  1  0  0
  -10.3285  -30.4889   57.2404 C   0  0  0  1  0  0
  -10.0384  -30.8062   54.7314 C   0  0  0  1  0  0
  -11.1914  -31.5930   54.5023 C   0  0  0  1  0  0
  -11.9154  -31.4959   53.3052 C   0  0  0  1  0  0
  -11.5035  -30.5982   52.3177 C   0  0  0  1  0  0
  -10.3557  -29.8310   52.5173 C   0  0  0  1  0  0
   -9.5551  -29.9512   53.6856 C   0  0  0  1  0  0
   -8.2395  -29.1531   53.7397 C   0  0  0  1  0  0
   -7.2027  -29.7495   54.7034 C   0  0  0  1  0  0
   -6.8615  -29.1396   55.6924 O   0  0  0  1  0  0
   -6.6362  -30.9824   54.4484 N   0  0  0  1  0  0
   -5.4306  -31.4534   55.1540 C   0  0  0  1  0  0
   -4.8132  -32.6834   54.9585 C   0  0  0  1  0  0
   -3.7378  -32.6560   55.8361 C   0  0  0  1  0  0
   -3.7297  -31.4683   56.5068 N   0  0  0  1  0  0
   -4.7489  -30.7500   56.0957 O   0  0  0  1  0  0
   -7.5297  -29.1304   52.3264 C   0  0  0  1  0  0
   -7.7798  -27.8187   51.5752 C   0  0  0  1  0  0
   -7.0484  -26.8069   52.3677 N   0  0  0  1  0  0
   -5.9089  -26.2541   51.8275 C   0  0  0  1  0  0
   -4.6721  -26.4204   52.4808 C   0  0  0  1  0  0
   -3.4814  -26.1649   51.7865 C   0  0  0  1  0  0
   -3.5356  -25.7100   50.4552 C   0  0  0  1  0  0
   -2.2968  -25.6814   49.6047 C   0  0  0  1  0  0
   -2.1809  -27.0040   48.8591 C   0  0  0  1  0  0
   -1.9946  -28.0225   49.4887 O   0  0  0  1  0  0
   -2.3256  -27.0278   47.5322 O   0  0  0  1  0  0
   -1.8612  -24.4011   48.9189 C   0  0  0  1  0  0
   -1.0444  -24.9544   50.0648 C   0  0  0  1  0  0
   -4.7664  -25.3287   49.8936 C   0  0  0  1  0  0
   -5.9570  -25.5997   50.5789 C   0  0  0  1  0  0
   -7.5000  -26.6193   53.7748 C   0  0  0  1  0  0
   -8.5756  -27.6727   54.1635 C   0  0  0  1  0  0
   -9.6723  -33.0365   56.4300 H   0  0
   -8.2879  -32.3357   57.2953 H   0  0
   -8.1794  -32.6351   55.5403 H   0  0
   -8.5531  -30.2294   56.0839 H   0  0
   -9.7706  -30.4952   58.1768 H   0  0
  -11.1550  -31.1960   57.3115 H   0  0
  -10.7143  -29.4880   57.0470 H   0  0
  -11.5240  -32.2892   55.2722 H   0  0
  -12.7959  -32.1184   53.1461 H   0  0
  -12.0761  -30.4976   51.3957 H   0  0
  -10.0624  -29.1141   51.7504 H   0  0
   -7.0871  -31.6170   53.7144 H   0  0
   -5.1049  -33.4819   54.2763 H   0  0
   -3.0126  -33.4589   55.9686 H   0  0
   -7.9015  -29.9604   51.7256 H   0  0
   -6.4565  -29.2625   52.4636 H   0  0
   -8.8453  -27.5892   51.5641 H   0  0
   -7.3664  -27.8786   50.5684 H   0  0
   -4.6410  -26.7460   53.5206 H   0  0
   -2.5189  -26.3176   52.2747 H   0  0
   -1.6103  -26.3488   47.1718 H   0  0
   -2.4681  -23.5516   49.2321 H   0  0
   -1.3905  -24.6022   47.9565 H   0  0
   -0.1406  -25.4503   49.7109 H   0  0
   -1.2196  -24.4005   50.9871 H   0  0
   -4.7939  -24.8238   48.9280 H   0  0
   -6.9153  -25.3067   50.1500 H   0  0
   -7.9196  -25.6197   53.8879 H   0  0
   -6.6440  -26.7171   54.4425 H   0  0
   -8.7187  -27.6413   55.2436 H   0  0
   -9.5239  -27.3858   53.7090 H   0  0
  1  2  1  0
  2  3  1  0
  2  4  1  0
  4  5  2  0
  4  9  1  0
  5  6  1  0
  6  7  2  0
  7  8  1  0
  8  9  2  0
  9 10  1  0
 10 11  1  0
 10 19  1  0
 10 35  1  0
 11 12  2  0
 11 13  1  0
 13 14  1  0
 14 15  2  0
 14 18  1  0
 15 16  1  0
 16 17  2  0
 17 18  1  0
 19 20  1  0
 20 21  1  0
 21 22  1  0
 21 34  1  0
 22 23  2  0
 22 33  1  0
 23 24  1  0
 24 25  2  0
 25 26  1  0
 25 32  1  0
 26 27  1  0
 26 30  1  0
 26 31  1  0
 27 28  2  0
 27 29  1  0
 30 31  1  0
 32 33  2  0
 34 35  1  0
  1 36  1  0
  1 37  1  0
  1 38  1  0
  2 39  1  0
  3 40  1  0
  3 41  1  0
  3 42  1  0
  5 43  1  0
  6 44  1  0
  7 45  1  0
  8 46  1  0
 13 47  1  0
 15 48  1  0
 16 49  1  0
 19 50  1  0
 19 51  1  0
 20 52  1  0
 20 53  1  0
 23 54  1  0
 24 55  1  0
 29 56  1  0
 30 57  1  0
 30 58  1  0
 31 59  1  0
 31 60  1  0
 32 61  1  0
 33 62  1  0
 34 63  1  0
 34 64  1  0
 35 65  1  0
 35 66  1  0
M  END
> <Name>
Molecule

> <AbsoluteEnergy>
62.9212

> <Clean Energy>
221.807

> <ConfNumber>
70

> <MOL_NUMBER>
3

> <RelativeEnergy>
17.7393

> <POSE_NUMBER>
81

> <LibDockScore>
84.5403

> <HotSpots>
-4.33,-32.92,55.19,A,75,16
-7.93,-28.32,52.38,A,59,19
-5.93,-24.72,51.19,A,53,33

$$$$
Molecule
  SciTegic05072616053D

 66 70  0  0  0  0            999 V2000
   -3.1904  -28.6300   49.2863 C   0  0  0  1  0  0
   -3.8230  -28.6049   50.6878 C   0  0  0  1  0  0
   -5.0018  -29.5951   50.7861 C   0  0  0  1  0  0
   -4.2124  -27.2032   51.1126 C   0  0  0  1  0  0
   -4.9297  -26.4345   50.1674 C   0  0  0  1  0  0
   -5.3424  -25.1304   50.4533 C   0  0  0  1  0  0
   -5.0383  -24.5639   51.6929 C   0  0  0  1  0  0
   -4.3235  -25.3039   52.6434 C   0  0  0  1  0  0
   -3.8996  -26.6346   52.3951 C   0  0  0  1  0  0
   -3.1270  -27.4101   53.4779 C   0  0  0  1  0  0
   -3.9484  -28.6058   53.9705 C   0  0  0  1  0  0
   -5.1310  -28.6987   53.7249 O   0  0  0  1  0  0
   -3.3141  -29.6091   54.6701 N   0  0  0  1  0  0
   -3.9769  -30.8669   55.0357 C   0  0  0  1  0  0
   -3.3735  -31.8826   55.7576 C   0  0  0  1  0  0
   -4.3319  -32.8901   55.7568 C   0  0  0  1  0  0
   -5.4425  -32.4654   55.0877 N   0  0  0  1  0  0
   -5.2269  -31.2423   54.6641 O   0  0  0  1  0  0
   -1.7763  -27.9339   52.8490 C   0  0  0  1  0  0
   -0.5548  -27.6629   53.7323 C   0  0  0  1  0  0
   -0.5027  -26.1922   53.9097 N   0  0  0  1  0  0
    0.4269  -25.4453   53.2143 C   0  0  0  1  0  0
    0.1161  -24.1610   52.7190 C   0  0  0  1  0  0
    0.9414  -23.5680   51.7551 C   0  0  0  1  0  0
    2.0601  -24.2718   51.2792 C   0  0  0  1  0  0
    2.7154  -23.8465   49.9952 C   0  0  0  1  0  0
    1.9952  -24.5271   48.8359 C   0  0  0  1  0  0
    0.8486  -24.2147   48.6016 O   0  0  0  1  0  0
    2.6110  -25.4760   48.1326 O   0  0  0  1  0  0
    4.2134  -23.6171   49.9086 C   0  0  0  1  0  0
    3.2744  -22.4404   49.8308 C   0  0  0  1  0  0
    2.5135  -25.4127   51.9613 C   0  0  0  1  0  0
    1.6960  -25.9955   52.9340 C   0  0  0  1  0  0
   -1.5982  -25.6166   54.7321 C   0  0  0  1  0  0
   -2.8149  -26.5780   54.7854 C   0  0  0  1  0  0
   -3.9521  -28.3638   48.5535 H   0  0
   -2.8362  -29.6400   49.0800 H   0  0
   -2.3601  -27.9257   49.2337 H   0  0
   -3.0630  -28.9373   51.3949 H   0  0
   -4.6353  -30.5985   50.5696 H   0  0
   -5.7512  -29.3224   50.0430 H   0  0
   -5.4384  -29.5650   51.7844 H   0  0
   -5.1657  -26.8680   49.1956 H   0  0
   -5.8994  -24.5577   49.7118 H   0  0
   -5.3569  -23.5467   51.9206 H   0  0
   -4.0859  -24.8435   53.6024 H   0  0
   -2.2941  -29.4652   54.9595 H   0  0
   -2.3848  -31.8906   56.2163 H   0  0
   -4.2139  -33.8697   56.2200 H   0  0
   -1.8573  -29.0075   52.6790 H   0  0
   -1.6251  -27.4545   51.8818 H   0  0
   -0.6803  -28.1500   54.6993 H   0  0
    0.3500  -28.0094   53.2330 H   0  0
   -0.7637  -23.6320   53.0855 H   0  0
    0.7178  -22.5701   51.3779 H   0  0
    2.8977  -26.1906   48.8465 H   0  0
    4.6038  -23.8860   48.9271 H   0  0
    4.6866  -23.6905   50.8878 H   0  0
    3.2446  -21.8862   50.7689 H   0  0
    3.1605  -22.0828   48.8074 H   0  0
    3.4910  -25.8386   51.7350 H   0  0
    2.0392  -26.8762   53.4768 H   0  0
   -1.2339  -25.4415   55.7444 H   0  0
   -1.9107  -24.6653   54.3014 H   0  0
   -3.6998  -25.9956   55.0419 H   0  0
   -2.6639  -27.2748   55.6099 H   0  0
  1  2  1  0
  2  3  1  0
  2  4  1  0
  4  5  2  0
  4  9  1  0
  5  6  1  0
  6  7  2  0
  7  8  1  0
  8  9  2  0
  9 10  1  0
 10 11  1  0
 10 19  1  0
 10 35  1  0
 11 12  2  0
 11 13  1  0
 13 14  1  0
 14 15  2  0
 14 18  1  0
 15 16  1  0
 16 17  2  0
 17 18  1  0
 19 20  1  0
 20 21  1  0
 21 22  1  0
 21 34  1  0
 22 23  2  0
 22 33  1  0
 23 24  1  0
 24 25  2  0
 25 26  1  0
 25 32  1  0
 26 27  1  0
 26 30  1  0
 26 31  1  0
 27 28  2  0
 27 29  1  0
 30 31  1  0
 32 33  2  0
 34 35  1  0
  1 36  1  0
  1 37  1  0
  1 38  1  0
  2 39  1  0
  3 40  1  0
  3 41  1  0
  3 42  1  0
  5 43  1  0
  6 44  1  0
  7 45  1  0
  8 46  1  0
 13 47  1  0
 15 48  1  0
 16 49  1  0
 19 50  1  0
 19 51  1  0
 20 52  1  0
 20 53  1  0
 23 54  1  0
 24 55  1  0
 29 56  1  0
 30 57  1  0
 30 58  1  0
 31 59  1  0
 31 60  1  0
 32 61  1  0
 33 62  1  0
 34 63  1  0
 34 64  1  0
 35 65  1  0
 35 66  1  0
M  END
> <Name>
Molecule

> <AbsoluteEnergy>
64.6362

> <Clean Energy>
221.807

> <ConfNumber>
77

> <MOL_NUMBER>
3

> <RelativeEnergy>
19.4543

> <POSE_NUMBER>
82

> <LibDockScore>
81.2265

> <HotSpots>
-5.93,-24.72,51.19,A,53,6
-4.33,-32.92,55.19,A,75,16
2.27,-24.92,52.19,A,58,32

$$$$
Molecule
  SciTegic05072616053D

 69 73  0  0  0  0            999 V2000
    0.1388  -23.2318   46.9903 C   0  0  0  1  0  0
    0.2910  -24.5954   47.6957 C   0  0  0  1  0  0
    0.9605  -25.6193   46.7577 C   0  0  0  1  0  0
    1.0159  -24.4773   49.0200 C   0  0  0  1  0  0
    2.3874  -24.1388   48.9591 C   0  0  0  1  0  0
    3.1725  -24.0676   50.1164 C   0  0  0  1  0  0
    2.5961  -24.3448   51.3587 C   0  0  0  1  0  0
    1.2323  -24.6494   51.4457 C   0  0  0  1  0  0
    0.3996  -24.6948   50.2998 C   0  0  0  1  0  0
   -1.0991  -24.9904   50.4755 C   0  0  0  1  0  0
   -1.9523  -23.9510   49.7144 C   0  0  0  1  0  0
   -1.8257  -22.7767   49.9786 O   0  0  0  1  0  0
   -2.8464  -24.3617   48.7366 N   0  0  0  1  0  0
   -3.4425  -23.6199   47.7241 C   0  0  0  1  0  0
   -3.0497  -22.3106   47.3518 C   0  0  0  1  0  0
   -3.7186  -21.6551   46.2988 C   0  0  0  1  0  0
   -4.7380  -22.2548   45.6198 N   0  0  0  1  0  0
   -5.1290  -23.5147   45.9590 C   0  0  0  1  0  0
   -4.5008  -24.2175   47.0021 C   0  0  0  1  0  0
   -1.6067  -24.8580   51.9604 C   0  0  0  1  0  0
   -1.4984  -26.1419   52.8204 C   0  0  0  1  0  0
   -2.3080  -27.2390   52.2296 N   0  0  0  1  0  0
   -2.8927  -28.2444   52.9975 C   0  0  0  1  0  0
   -2.4675  -28.5397   54.3175 C   0  0  0  1  0  0
   -3.0012  -29.6448   55.0034 C   0  0  0  1  0  0
   -3.9475  -30.4809   54.3821 C   0  0  0  1  0  0
   -4.3524  -31.7705   55.0741 C   0  0  0  1  0  0
   -3.7507  -33.0015   54.3696 C   0  0  0  1  0  0
   -3.7639  -33.0200   53.1565 O   0  0  0  1  0  0
   -3.2262  -34.0105   55.0788 O   0  0  0  1  0  0
   -5.7095  -31.8812   55.7582 C   0  0  0  1  0  0
   -4.4543  -31.7820   56.5918 C   0  0  0  1  0  0
   -4.4581  -30.1261   53.1184 C   0  0  0  1  0  0
   -3.9396  -29.0134   52.4382 C   0  0  0  1  0  0
   -2.4685  -27.2225   50.7456 C   0  0  0  1  0  0
   -1.3181  -26.4784   50.0319 C   0  0  0  1  0  0
   -0.4719  -23.3603   46.0967 H   0  0
    1.1252  -22.8694   46.7009 H   0  0
   -0.3352  -22.5156   47.6615 H   0  0
   -0.7087  -24.9608   47.9304 H   0  0
    1.9436  -25.2472   46.4692 H   0  0
    0.3464  -25.7380   45.8650 H   0  0
    1.0633  -26.5785   47.2652 H   0  0
    2.8429  -23.9290   47.9913 H   0  0
    4.2264  -23.7977   50.0486 H   0  0
    3.2083  -24.3239   52.2603 H   0  0
    0.7982  -24.8578   52.4236 H   0  0
   -3.1153  -25.3969   48.7663 H   0  0
   -2.2345  -21.8129   47.8770 H   0  0
   -3.4144  -20.6460   46.0208 H   0  0
   -5.9445  -23.9871   45.4113 H   0  0
   -4.8305  -25.2253   47.2546 H   0  0
   -1.0434  -24.0643   52.4510 H   0  0
   -2.6487  -24.5385   51.9456 H   0  0
   -0.4552  -26.4534   52.8736 H   0  0
   -1.8571  -25.9333   53.8283 H   0  0
   -1.7238  -27.9073   54.8024 H   0  0
   -2.6798  -29.8555   56.0234 H   0  0
   -4.0034  -34.3064   55.7198 H   0  0
   -6.0913  -32.9016   55.7257 H   0  0
   -6.2493  -30.9347   55.7292 H   0  0
   -4.3265  -30.7832   57.0091 H   0  0
   -4.1677  -32.7494   57.0042 H   0  0
   -5.2565  -30.7161   52.6684 H   0  0
   -4.3491  -28.7383   51.4662 H   0  0
   -2.5072  -28.2492   50.3815 H   0  0
   -3.4129  -26.7393   50.4953 H   0  0
   -1.5069  -26.4972   48.9585 H   0  0
   -0.3934  -27.0313   50.1970 H   0  0
  1  2  1  0
  2  3  1  0
  2  4  1  0
  4  5  2  0
  4  9  1  0
  5  6  1  0
  6  7  2  0
  7  8  1  0
  8  9  2  0
  9 10  1  0
 10 11  1  0
 10 20  1  0
 10 36  1  0
 11 12  2  0
 11 13  1  0
 13 14  1  0
 14 15  2  0
 14 19  1  0
 15 16  1  0
 16 17  2  0
 17 18  1  0
 18 19  2  0
 20 21  1  0
 21 22  1  0
 22 23  1  0
 22 35  1  0
 23 24  2  0
 23 34  1  0
 24 25  1  0
 25 26  2  0
 26 27  1  0
 26 33  1  0
 27 28  1  0
 27 31  1  0
 27 32  1  0
 28 29  2  0
 28 30  1  0
 31 32  1  0
 33 34  2  0
 35 36  1  0
  1 37  1  0
  1 38  1  0
  1 39  1  0
  2 40  1  0
  3 41  1  0
  3 42  1  0
  3 43  1  0
  5 44  1  0
  6 45  1  0
  7 46  1  0
  8 47  1  0
 13 48  1  0
 15 49  1  0
 16 50  1  0
 18 51  1  0
 19 52  1  0
 20 53  1  0
 20 54  1  0
 21 55  1  0
 21 56  1  0
 24 57  1  0
 25 58  1  0
 30 59  1  0
 31 60  1  0
 31 61  1  0
 32 62  1  0
 32 63  1  0
 33 64  1  0
 34 65  1  0
 35 66  1  0
 35 67  1  0
 36 68  1  0
 36 69  1  0
M  END
> <Name>
Molecule

> <AbsoluteEnergy>
71.4372

> <Clean Energy>
200.853

> <ConfNumber>
45

> <MOL_NUMBER>
4

> <RelativeEnergy>
9.91471

> <POSE_NUMBER>
1

> <LibDockScore>
148.0718

> <HotSpots>
1.87,-25.32,48.38,A,30,3
0.87,-24.32,52.78,A,63,8
-3.33,-32.52,54.19,P,48,29

$$$$
Molecule
  SciTegic05072616053D

 69 73  0  0  0  0            999 V2000
    1.6721  -25.3185   46.6626 C   0  0  0  1  0  0
    0.6412  -24.4265   47.3816 C   0  0  0  1  0  0
    0.6820  -22.9918   46.8132 C   0  0  0  1  0  0
    0.8340  -24.4656   48.8843 C   0  0  0  1  0  0
    2.1542  -24.2724   49.3523 C   0  0  0  1  0  0
    2.4674  -24.3820   50.7121 C   0  0  0  1  0  0
    1.4644  -24.7099   51.6265 C   0  0  0  1  0  0
    0.1475  -24.8853   51.1868 C   0  0  0  1  0  0
   -0.2251  -24.7043   49.8262 C   0  0  0  1  0  0
   -1.7042  -24.8045   49.4005 C   0  0  0  1  0  0
   -2.2090  -23.5590   48.6402 C   0  0  0  1  0  0
   -1.7017  -22.4775   48.8284 O   0  0  0  1  0  0
   -3.2844  -23.6942   47.7752 N   0  0  0  1  0  0
   -3.7273  -22.8096   46.8065 C   0  0  0  1  0  0
   -3.0216  -21.6558   46.3976 C   0  0  0  1  0  0
   -3.5866  -20.8065   45.4257 C   0  0  0  1  0  0
   -4.7987  -21.0748   44.8614 N   0  0  0  1  0  0
   -5.4860  -22.1905   45.2322 C   0  0  0  1  0  0
   -4.9721  -23.0762   46.1941 C   0  0  0  1  0  0
   -2.7486  -24.8344   50.5963 C   0  0  0  1  0  0
   -3.7811  -25.9613   50.4796 C   0  0  0  1  0  0
   -3.0792  -27.2722   50.4386 N   0  0  0  1  0  0
   -3.4346  -28.2953   51.3054 C   0  0  0  1  0  0
   -2.6278  -29.4463   51.4519 C   0  0  0  1  0  0
   -2.8876  -30.3632   52.4821 C   0  0  0  1  0  0
   -3.9587  -30.1401   53.3650 C   0  0  0  1  0  0
   -4.1054  -30.9801   54.6019 C   0  0  0  1  0  0
   -3.3052  -30.3338   55.7231 C   0  0  0  1  0  0
   -3.8474  -30.1198   56.7813 O   0  0  0  1  0  0
   -2.0388  -29.9786   55.5039 O   0  0  0  1  0  0
   -5.4152  -31.6843   54.9151 C   0  0  0  1  0  0
   -4.2027  -32.4929   54.5184 C   0  0  0  1  0  0
   -4.8636  -29.0955   53.1184 C   0  0  0  1  0  0
   -4.6057  -28.1831   52.0897 C   0  0  0  1  0  0
   -1.9453  -27.3899   49.4749 C   0  0  0  1  0  0
   -1.8281  -26.1383   48.5788 C   0  0  0  1  0  0
    2.6680  -24.8991   46.8051 H   0  0
    1.4419  -25.3427   45.5975 H   0  0
    1.6368  -26.3290   47.0696 H   0  0
   -0.3570  -24.8207   47.1913 H   0  0
    0.4550  -23.0235   45.7476 H   0  0
    1.6811  -22.5799   46.9553 H   0  0
   -0.0496  -22.3680   47.3268 H   0  0
    2.9438  -24.0333   48.6399 H   0  0
    3.4880  -24.2124   51.0551 H   0  0
    1.7071  -24.8292   52.6824 H   0  0
   -0.6169  -25.1696   51.9100 H   0  0
   -3.8452  -24.6006   47.8686 H   0  0
   -2.0483  -21.4247   46.8304 H   0  0
   -3.0420  -19.9140   45.1176 H   0  0
   -6.4526  -22.4002   44.7742 H   0  0
   -5.5340  -23.9692   46.4679 H   0  0
   -3.2732  -23.8797   50.6329 H   0  0
   -2.2076  -24.9492   51.5356 H   0  0
   -4.3608  -25.8314   49.5657 H   0  0
   -4.4485  -25.9337   51.3410 H   0  0
   -1.8016  -29.6224   50.7630 H   0  0
   -2.2600  -31.2469   52.5975 H   0  0
   -2.0784  -29.3356   54.6747 H   0  0
   -6.1249  -31.5942   54.0927 H   0  0
   -5.5966  -31.7321   55.9888 H   0  0
   -3.7398  -32.9725   55.3809 H   0  0
   -4.2671  -32.8333   53.4849 H   0  0
   -5.7632  -28.9958   53.7258 H   0  0
   -5.3138  -27.3786   51.8911 H   0  0
   -2.0988  -28.2667   48.8459 H   0  0
   -1.0163  -27.5206   50.0299 H   0  0
   -0.9530  -26.2437   47.9376 H   0  0
   -2.7073  -26.0794   47.9372 H   0  0
  1  2  1  0
  2  3  1  0
  2  4  1  0
  4  5  2  0
  4  9  1  0
  5  6  1  0
  6  7  2  0
  7  8  1  0
  8  9  2  0
  9 10  1  0
 10 11  1  0
 10 20  1  0
 10 36  1  0
 11 12  2  0
 11 13  1  0
 13 14  1  0
 14 15  2  0
 14 19  1  0
 15 16  1  0
 16 17  2  0
 17 18  1  0
 18 19  2  0
 20 21  1  0
 21 22  1  0
 22 23  1  0
 22 35  1  0
 23 24  2  0
 23 34  1  0
 24 25  1  0
 25 26  2  0
 26 27  1  0
 26 33  1  0
 27 28  1  0
 27 31  1  0
 27 32  1  0
 28 29  2  0
 28 30  1  0
 31 32  1  0
 33 34  2  0
 35 36  1  0
  1 37  1  0
  1 38  1  0
  1 39  1  0
  2 40  1  0
  3 41  1  0
  3 42  1  0
  3 43  1  0
  5 44  1  0
  6 45  1  0
  7 46  1  0
  8 47  1  0
 13 48  1  0
 15 49  1  0
 16 50  1  0
 18 51  1  0
 19 52  1  0
 20 53  1  0
 20 54  1  0
 21 55  1  0
 21 56  1  0
 24 57  1  0
 25 58  1  0
 30 59  1  0
 31 60  1  0
 31 61  1  0
 32 62  1  0
 32 63  1  0
 33 64  1  0
 34 65  1  0
 35 66  1  0
 35 67  1  0
 36 68  1  0
 36 69  1  0
M  END
> <Name>
Molecule

> <AbsoluteEnergy>
75.6324

> <Clean Energy>
200.853

> <ConfNumber>
67

> <MOL_NUMBER>
4

> <RelativeEnergy>
14.1099

> <POSE_NUMBER>
2

> <LibDockScore>
142.368

> <HotSpots>
2.67,-23.92,48.98,A,32,5
1.67,-24.32,50.98,A,50,7
-5.13,-20.52,44.98,P,17,17

$$$$
Molecule
  SciTegic05072616053D

 69 73  0  0  0  0            999 V2000
    1.8564  -25.4597   46.0002 C   0  0  0  1  0  0
    0.8179  -24.9097   47.0077 C   0  0  0  1  0  0
    0.1664  -23.6558   46.3859 C   0  0  0  1  0  0
    1.3329  -24.6557   48.4209 C   0  0  0  1  0  0
    2.7257  -24.4185   48.5542 C   0  0  0  1  0  0
    3.3192  -24.1398   49.7858 C   0  0  0  1  0  0
    2.5318  -24.0838   50.9307 C   0  0  0  1  0  0
    1.1577  -24.3181   50.8393 C   0  0  0  1  0  0
    0.5073  -24.6270   49.6116 C   0  0  0  1  0  0
   -1.0304  -24.8645   49.6669 C   0  0  0  1  0  0
   -1.7067  -23.7415   48.8483 C   0  0  0  1  0  0
   -1.2918  -22.6068   48.9534 O   0  0  0  1  0  0
   -2.7656  -24.0027   47.9944 N   0  0  0  1  0  0
   -3.3854  -23.1277   47.1020 C   0  0  0  1  0  0
   -4.6813  -23.4403   46.6303 C   0  0  0  1  0  0
   -5.3332  -22.5787   45.7267 C   0  0  0  1  0  0
   -4.7422  -21.4333   45.2864 N   0  0  0  1  0  0
   -3.4920  -21.1112   45.7207 C   0  0  0  1  0  0
   -2.7891  -21.9377   46.6185 C   0  0  0  1  0  0
   -1.4054  -26.3036   49.1556 C   0  0  0  1  0  0
   -2.7301  -26.9727   49.5909 C   0  0  0  1  0  0
   -3.0303  -26.7591   51.0263 N   0  0  0  1  0  0
   -3.3744  -27.8042   51.8822 C   0  0  0  1  0  0
   -3.3053  -29.1445   51.4371 C   0  0  0  1  0  0
   -3.6397  -30.2061   52.2913 C   0  0  0  1  0  0
   -4.0653  -29.9489   53.6057 C   0  0  0  1  0  0
   -4.4340  -31.0935   54.5243 C   0  0  0  1  0  0
   -3.5611  -31.2029   55.7769 C   0  0  0  1  0  0
   -3.1028  -30.2043   56.2853 O   0  0  0  1  0  0
   -3.3242  -32.4113   56.2911 O   0  0  0  1  0  0
   -4.9496  -32.3792   53.8928 C   0  0  0  1  0  0
   -5.9018  -31.4802   54.6448 C   0  0  0  1  0  0
   -4.1428  -28.6210   54.0621 C   0  0  0  1  0  0
   -3.7986  -27.5587   53.2096 C   0  0  0  1  0  0
   -2.9397  -25.3464   51.4609 C   0  0  0  1  0  0
   -1.5513  -24.7725   51.1514 C   0  0  0  1  0  0
    2.6253  -24.7117   45.8069 H   0  0
    1.3656  -25.7335   45.0663 H   0  0
    2.3254  -26.3467   46.4261 H   0  0
    0.0791  -25.6950   47.1679 H   0  0
   -0.3370  -23.9162   45.4548 H   0  0
    0.9227  -22.8944   46.1955 H   0  0
   -0.5684  -23.2568   47.0851 H   0  0
    3.3534  -24.4553   47.6638 H   0  0
    4.3935  -23.9670   49.8502 H   0  0
    2.9852  -23.8579   51.8959 H   0  0
    0.5576  -24.2619   51.7475 H   0  0
   -3.1564  -24.9984   48.0227 H   0  0
   -5.1772  -24.3507   46.9670 H   0  0
   -6.3319  -22.8340   45.3723 H   0  0
   -3.0249  -20.1927   45.3652 H   0  0
   -1.7854  -21.6613   46.9415 H   0  0
   -1.3882  -26.2842   48.0659 H   0  0
   -0.5917  -26.9763   49.4268 H   0  0
   -3.5469  -26.5668   48.9941 H   0  0
   -2.6695  -28.0437   49.3976 H   0  0
   -2.9878  -29.3559   50.4160 H   0  0
   -3.5692  -31.2336   51.9343 H   0  0
   -2.8981  -32.9652   55.5074 H   0  0
   -4.6719  -33.2534   54.4817 H   0  0
   -5.0656  -32.2756   52.8140 H   0  0
   -6.5257  -30.8980   53.9666 H   0  0
   -6.1307  -31.8748   55.6348 H   0  0
   -4.4711  -28.4152   55.0809 H   0  0
   -3.8590  -26.5335   53.5749 H   0  0
   -3.1229  -25.2861   52.5337 H   0  0
   -3.6961  -24.7599   50.9394 H   0  0
   -1.5436  -23.7250   51.4526 H   0  0
   -0.8280  -25.2690   51.7983 H   0  0
  1  2  1  0
  2  3  1  0
  2  4  1  0
  4  5  2  0
  4  9  1  0
  5  6  1  0
  6  7  2  0
  7  8  1  0
  8  9  2  0
  9 10  1  0
 10 11  1  0
 10 20  1  0
 10 36  1  0
 11 12  2  0
 11 13  1  0
 13 14  1  0
 14 15  2  0
 14 19  1  0
 15 16  1  0
 16 17  2  0
 17 18  1  0
 18 19  2  0
 20 21  1  0
 21 22  1  0
 22 23  1  0
 22 35  1  0
 23 24  2  0
 23 34  1  0
 24 25  1  0
 25 26  2  0
 26 27  1  0
 26 33  1  0
 27 28  1  0
 27 31  1  0
 27 32  1  0
 28 29  2  0
 28 30  1  0
 31 32  1  0
 33 34  2  0
 35 36  1  0
  1 37  1  0
  1 38  1  0
  1 39  1  0
  2 40  1  0
  3 41  1  0
  3 42  1  0
  3 43  1  0
  5 44  1  0
  6 45  1  0
  7 46  1  0
  8 47  1  0
 13 48  1  0
 15 49  1  0
 16 50  1  0
 18 51  1  0
 19 52  1  0
 20 53  1  0
 20 54  1  0
 21 55  1  0
 21 56  1  0
 24 57  1  0
 25 58  1  0
 30 59  1  0
 31 60  1  0
 31 61  1  0
 32 62  1  0
 32 63  1  0
 33 64  1  0
 34 65  1  0
 35 66  1  0
 35 67  1  0
 36 68  1  0
 36 69  1  0
M  END
> <Name>
Molecule

> <AbsoluteEnergy>
76.676

> <Clean Energy>
200.853

> <ConfNumber>
73

> <MOL_NUMBER>
4

> <RelativeEnergy>
15.1535

> <POSE_NUMBER>
3

> <LibDockScore>
139.3931

> <HotSpots>
2.67,-23.92,48.98,A,32,5
2.67,-22.92,49.98,A,39,6
-5.93,-22.12,45.59,A,14,16

$$$$
Molecule
  SciTegic05072616053D

 69 73  0  0  0  0            999 V2000
    1.1758  -23.5321   47.7985 C   0  0  0  1  0  0
    0.4355  -24.7548   48.3765 C   0  0  0  1  0  0
    1.1608  -26.0669   48.0231 C   0  0  0  1  0  0
    0.2034  -24.6302   49.8659 C   0  0  0  1  0  0
    1.3542  -24.5853   50.6851 C   0  0  0  1  0  0
    1.2540  -24.4259   52.0708 C   0  0  0  1  0  0
   -0.0048  -24.2962   52.6622 C   0  0  0  1  0  0
   -1.1593  -24.3469   51.8702 C   0  0  0  1  0  0
   -1.0958  -24.5513   50.4679 C   0  0  0  1  0  0
   -2.3934  -24.6752   49.6501 C   0  0  0  1  0  0
   -2.4639  -23.5577   48.5881 C   0  0  0  1  0  0
   -1.6132  -22.6960   48.5732 O   0  0  0  1  0  0
   -3.4957  -23.5444   47.6593 N   0  0  0  1  0  0
   -3.8012  -22.5670   46.7132 C   0  0  0  1  0  0
   -5.0943  -22.5674   46.1391 C   0  0  0  1  0  0
   -5.4464  -21.5978   45.1832 C   0  0  0  1  0  0
   -4.5629  -20.6410   44.7847 N   0  0  0  1  0  0
   -3.3088  -20.6194   45.3172 C   0  0  0  1  0  0
   -2.8982  -21.5678   46.2739 C   0  0  0  1  0  0
   -3.7004  -24.5506   50.4915 C   0  0  0  1  0  0
   -4.0232  -25.6856   51.4989 C   0  0  0  1  0  0
   -3.3768  -27.0247   51.2673 N   0  0  0  1  0  0
   -3.6236  -28.0856   52.1509 C   0  0  0  1  0  0
   -2.7888  -29.2306   52.1704 C   0  0  0  1  0  0
   -3.0336  -30.2922   53.0566 C   0  0  0  1  0  0
   -4.1176  -30.2357   53.9480 C   0  0  0  1  0  0
   -4.3737  -31.3741   54.9118 C   0  0  0  1  0  0
   -3.8510  -31.1089   56.3245 C   0  0  0  1  0  0
   -4.3207  -31.7283   57.2527 O   0  0  0  1  0  0
   -2.8882  -30.2035   56.5099 O   0  0  0  1  0  0
   -5.6534  -32.1813   54.7475 C   0  0  0  1  0  0
   -4.3255  -32.8015   54.3880 C   0  0  0  1  0  0
   -4.9581  -29.1106   53.9420 C   0  0  0  1  0  0
   -4.7126  -28.0485   53.0569 C   0  0  0  1  0  0
   -2.4496  -27.2151   50.1060 C   0  0  0  1  0  0
   -2.5237  -26.1052   49.0508 C   0  0  0  1  0  0
    1.2316  -23.6374   46.7150 H   0  0
    2.1867  -23.5110   48.2057 H   0  0
    0.6496  -22.6134   48.0577 H   0  0
   -0.5480  -24.7839   47.9074 H   0  0
    2.1718  -26.0275   48.4287 H   0  0
    1.2167  -26.1540   46.9380 H   0  0
    0.6246  -26.9199   48.4390 H   0  0
    2.3394  -24.6767   50.2278 H   0  0
    2.1534  -24.4030   52.6861 H   0  0
   -0.0888  -24.1556   53.7398 H   0  0
   -2.1332  -24.2260   52.3446 H   0  0
   -4.1420  -24.3971   47.6711 H   0  0
   -5.8209  -23.3226   46.4390 H   0  0
   -6.4475  -21.6124   44.7522 H   0  0
   -2.6070  -19.8501   44.9952 H   0  0
   -1.8858  -21.5330   46.6763 H   0  0
   -3.6637  -23.6096   51.0405 H   0  0
   -4.5414  -24.4574   49.8044 H   0  0
   -5.1035  -25.8296   51.5192 H   0  0
   -3.7496  -25.3450   52.4975 H   0  0
   -1.9424  -29.2883   51.4860 H   0  0
   -2.3794  -31.1640   53.0526 H   0  0
   -3.2690  -29.3170   56.0956 H   0  0
   -6.2080  -31.8755   53.8604 H   0  0
   -6.0215  -32.5458   55.7066 H   0  0
   -3.9858  -33.4978   55.1548 H   0  0
   -4.1716  -32.8261   53.3092 H   0  0
   -5.8044  -29.0616   54.6272 H   0  0
   -5.3713  -27.1801   53.0669 H   0  0
   -2.6765  -28.1682   49.6283 H   0  0
   -1.4276  -27.2752   50.4802 H   0  0
   -1.7277  -26.2583   48.3221 H   0  0
   -3.4748  -26.1826   48.5240 H   0  0
  1  2  1  0
  2  3  1  0
  2  4  1  0
  4  5  2  0
  4  9  1  0
  5  6  1  0
  6  7  2  0
  7  8  1  0
  8  9  2  0
  9 10  1  0
 10 11  1  0
 10 20  1  0
 10 36  1  0
 11 12  2  0
 11 13  1  0
 13 14  1  0
 14 15  2  0
 14 19  1  0
 15 16  1  0
 16 17  2  0
 17 18  1  0
 18 19  2  0
 20 21  1  0
 21 22  1  0
 22 23  1  0
 22 35  1  0
 23 24  2  0
 23 34  1  0
 24 25  1  0
 25 26  2  0
 26 27  1  0
 26 33  1  0
 27 28  1  0
 27 31  1  0
 27 32  1  0
 28 29  2  0
 28 30  1  0
 31 32  1  0
 33 34  2  0
 35 36  1  0
  1 37  1  0
  1 38  1  0
  1 39  1  0
  2 40  1  0
  3 41  1  0
  3 42  1  0
  3 43  1  0
  5 44  1  0
  6 45  1  0
  7 46  1  0
  8 47  1  0
 13 48  1  0
 15 49  1  0
 16 50  1  0
 18 51  1  0
 19 52  1  0
 20 53  1  0
 20 54  1  0
 21 55  1  0
 21 56  1  0
 24 57  1  0
 25 58  1  0
 30 59  1  0
 31 60  1  0
 31 61  1  0
 32 62  1  0
 32 63  1  0
 33 64  1  0
 34 65  1  0
 35 66  1  0
 35 67  1  0
 36 68  1  0
 36 69  1  0
M  END
> <Name>
Molecule

> <AbsoluteEnergy>
66.0873

> <Clean Energy>
200.853

> <ConfNumber>
13

> <MOL_NUMBER>
4

> <RelativeEnergy>
4.56476

> <POSE_NUMBER>
4

> <LibDockScore>
138.2808

> <HotSpots>
0.87,-24.32,52.78,A,63,6
-5.13,-22.92,46.19,A,18,15
-4.33,-31.92,57.78,P,73,29

$$$$
Molecule
  SciTegic05072616053D

 69 73  0  0  0  0            999 V2000
    1.0591  -23.3940   47.8671 C   0  0  0  1  0  0
    0.3831  -24.6616   48.4265 C   0  0  0  1  0  0
    1.1743  -25.9293   48.0528 C   0  0  0  1  0  0
    0.1466  -24.5720   49.9177 C   0  0  0  1  0  0
    1.2952  -24.5093   50.7390 C   0  0  0  1  0  0
    1.1897  -24.3790   52.1273 C   0  0  0  1  0  0
   -0.0727  -24.2969   52.7196 C   0  0  0  1  0  0
   -1.2248  -24.3659   51.9256 C   0  0  0  1  0  0
   -1.1546  -24.5419   50.5197 C   0  0  0  1  0  0
   -2.4476  -24.6878   49.6983 C   0  0  0  1  0  0
   -2.5549  -23.5470   48.6645 C   0  0  0  1  0  0
   -1.7253  -22.6648   48.6630 O   0  0  0  1  0  0
   -3.5953  -23.5362   47.7454 N   0  0  0  1  0  0
   -3.8877  -22.5796   46.7743 C   0  0  0  1  0  0
   -5.1886  -22.5611   46.2183 C   0  0  0  1  0  0
   -5.5279  -21.6112   45.2383 C   0  0  0  1  0  0
   -4.6242  -20.6919   44.7988 N   0  0  0  1  0  0
   -3.3624  -20.6893   45.3130 C   0  0  0  1  0  0
   -2.9641  -21.6196   46.2924 C   0  0  0  1  0  0
   -3.7579  -24.6270   50.5418 C   0  0  0  1  0  0
   -4.0431  -25.7968   51.5203 C   0  0  0  1  0  0
   -3.3533  -27.1078   51.2557 N   0  0  0  1  0  0
   -3.5650  -28.1979   52.1124 C   0  0  0  1  0  0
   -2.6394  -29.2692   52.1756 C   0  0  0  1  0  0
   -2.8493  -30.3599   53.0350 C   0  0  0  1  0  0
   -3.9885  -30.4068   53.8554 C   0  0  0  1  0  0
   -4.2081  -31.5761   54.7908 C   0  0  0  1  0  0
   -3.9385  -31.2438   56.2591 C   0  0  0  1  0  0
   -4.3303  -32.0031   57.1169 O   0  0  0  1  0  0
   -3.2769  -30.1271   56.5696 O   0  0  0  1  0  0
   -5.3167  -32.5644   54.4587 C   0  0  0  1  0  0
   -3.8737  -32.9774   54.3020 C   0  0  0  1  0  0
   -4.9190  -29.3561   53.8050 C   0  0  0  1  0  0
   -4.7085  -28.2649   52.9468 C   0  0  0  1  0  0
   -2.4206  -27.2387   50.0906 C   0  0  0  1  0  0
   -2.5312  -26.1058   49.0634 C   0  0  0  1  0  0
    1.1190  -23.4797   46.7821 H   0  0
    2.0680  -23.3273   48.2743 H   0  0
    0.4868  -22.5076   48.1405 H   0  0
   -0.5981  -24.7337   47.9574 H   0  0
    2.1824  -25.8444   48.4586 H   0  0
    1.2334  -25.9968   46.9665 H   0  0
    0.6829  -26.8149   48.4558 H   0  0
    2.2829  -24.5636   50.2811 H   0  0
    2.0877  -24.3417   52.7439 H   0  0
   -0.1614  -24.1791   53.7996 H   0  0
   -2.2020  -24.2821   52.4011 H   0  0
   -4.2609  -24.3729   47.7880 H   0  0
   -5.9312  -23.2863   46.5510 H   0  0
   -6.5352  -21.6107   44.8218 H   0  0
   -2.6445  -19.9499   44.9580 H   0  0
   -1.9454  -21.6010   46.6796 H   0  0
   -3.7519  -23.6994   51.1141 H   0  0
   -4.6017  -24.5443   49.8568 H   0  0
   -5.1181  -25.9766   51.5364 H   0  0
   -3.7805  -25.4725   52.5273 H   0  0
   -1.7495  -29.2462   51.5465 H   0  0
   -2.1249  -31.1738   53.0655 H   0  0
   -3.8287  -29.3541   56.1219 H   0  0
   -5.7777  -32.3399   53.4969 H   0  0
   -5.7601  -32.9851   55.3612 H   0  0
   -3.5478  -33.6194   55.1204 H   0  0
   -3.5649  -32.9727   53.2567 H   0  0
   -5.8082  -29.3878   54.4346 H   0  0
   -5.4375  -27.4550   52.9219 H   0  0
   -2.6163  -28.1865   49.5891 H   0  0
   -1.3971  -27.2746   50.4638 H   0  0
   -1.7308  -26.2145   48.3315 H   0  0
   -3.4794  -26.2011   48.5343 H   0  0
  1  2  1  0
  2  3  1  0
  2  4  1  0
  4  5  2  0
  4  9  1  0
  5  6  1  0
  6  7  2  0
  7  8  1  0
  8  9  2  0
  9 10  1  0
 10 11  1  0
 10 20  1  0
 10 36  1  0
 11 12  2  0
 11 13  1  0
 13 14  1  0
 14 15  2  0
 14 19  1  0
 15 16  1  0
 16 17  2  0
 17 18  1  0
 18 19  2  0
 20 21  1  0
 21 22  1  0
 22 23  1  0
 22 35  1  0
 23 24  2  0
 23 34  1  0
 24 25  1  0
 25 26  2  0
 26 27  1  0
 26 33  1  0
 27 28  1  0
 27 31  1  0
 27 32  1  0
 28 29  2  0
 28 30  1  0
 31 32  1  0
 33 34  2  0
 35 36  1  0
  1 37  1  0
  1 38  1  0
  1 39  1  0
  2 40  1  0
  3 41  1  0
  3 42  1  0
  3 43  1  0
  5 44  1  0
  6 45  1  0
  7 46  1  0
  8 47  1  0
 13 48  1  0
 15 49  1  0
 16 50  1  0
 18 51  1  0
 19 52  1  0
 20 53  1  0
 20 54  1  0
 21 55  1  0
 21 56  1  0
 24 57  1  0
 25 58  1  0
 30 59  1  0
 31 60  1  0
 31 61  1  0
 32 62  1  0
 32 63  1  0
 33 64  1  0
 34 65  1  0
 35 66  1  0
 35 67  1  0
 36 68  1  0
 36 69  1  0
M  END
> <Name>
Molecule

> <AbsoluteEnergy>
66.0873

> <Clean Energy>
200.853

> <ConfNumber>
13

> <MOL_NUMBER>
4

> <RelativeEnergy>
4.56476

> <POSE_NUMBER>
5

> <LibDockScore>
137.4335

> <HotSpots>
1.27,-23.52,47.59,A,27,1
-3.53,-20.52,45.19,A,12,18
-3.33,-32.52,56.19,P,67,29

$$$$
Molecule
  SciTegic05072616053D

 69 73  0  0  0  0            999 V2000
    2.3655  -25.0845   51.1197 C   0  0  0  1  0  0
    1.5509  -24.1286   50.2297 C   0  0  0  1  0  0
    2.1201  -22.6906   50.2960 C   0  0  0  1  0  0
    1.4168  -24.6737   48.8221 C   0  0  0  1  0  0
    2.6026  -24.6287   48.0438 C   0  0  0  1  0  0
    2.6325  -25.0449   46.7101 C   0  0  0  1  0  0
    1.4733  -25.5398   46.1184 C   0  0  0  1  0  0
    0.2982  -25.6340   46.8709 C   0  0  0  1  0  0
    0.2223  -25.2284   48.2310 C   0  0  0  1  0  0
   -1.1639  -25.4706   48.8723 C   0  0  0  1  0  0
   -2.2660  -24.8672   47.9824 C   0  0  0  1  0  0
   -3.1469  -25.5812   47.5591 O   0  0  0  1  0  0
   -2.2334  -23.5133   47.6680 N   0  0  0  1  0  0
   -3.1464  -22.8262   46.8791 C   0  0  0  1  0  0
   -4.4603  -23.2934   46.6401 C   0  0  0  1  0  0
   -5.3256  -22.5557   45.8113 C   0  0  0  1  0  0
   -4.9355  -21.3809   45.2408 N   0  0  0  1  0  0
   -3.6809  -20.9023   45.4732 C   0  0  0  1  0  0
   -2.7682  -21.5983   46.2876 C   0  0  0  1  0  0
   -1.3045  -27.0119   49.0607 C   0  0  0  1  0  0
   -2.6413  -27.5421   49.6168 C   0  0  0  1  0  0
   -3.3400  -26.6599   50.6017 N   0  0  0  1  0  0
   -4.4759  -27.1296   51.2648 C   0  0  0  1  0  0
   -4.6547  -28.5048   51.5578 C   0  0  0  1  0  0
   -5.8271  -28.9598   52.1908 C   0  0  0  1  0  0
   -6.8374  -28.0512   52.5522 C   0  0  0  1  0  0
   -8.1081  -28.5399   53.2192 C   0  0  0  1  0  0
   -8.9781  -29.4110   52.3145 C   0  0  0  1  0  0
   -9.0917  -29.1216   51.1448 O   0  0  0  1  0  0
   -9.5997  -30.4732   52.8324 O   0  0  0  1  0  0
   -8.0719  -28.8414   54.7108 C   0  0  0  1  0  0
   -8.8269  -27.6348   54.2101 C   0  0  0  1  0  0
   -6.6625  -26.6819   52.2828 C   0  0  0  1  0  0
   -5.4936  -26.2263   51.6506 C   0  0  0  1  0  0
   -2.8696  -25.2536   50.8232 C   0  0  0  1  0  0
   -1.4522  -24.9276   50.2935 C   0  0  0  1  0  0
    2.3291  -24.7254   52.1482 H   0  0
    3.4010  -25.0865   50.7792 H   0  0
    1.9543  -26.0924   51.0636 H   0  0
    0.5341  -24.0635   50.6169 H   0  0
    3.1570  -22.7062   49.9601 H   0  0
    2.0850  -22.3450   51.3292 H   0  0
    1.5344  -22.0251   49.6618 H   0  0
    3.5198  -24.2575   48.5011 H   0  0
    3.5574  -24.9825   46.1367 H   0  0
    1.4816  -25.8522   45.0742 H   0  0
   -0.5965  -26.0351   46.3946 H   0  0
   -1.4239  -22.9439   48.0746 H   0  0
   -4.8014  -24.2225   47.0969 H   0  0
   -6.3307  -22.9323   45.6212 H   0  0
   -3.3775  -19.9594   45.0182 H   0  0
   -1.7720  -21.1920   46.4622 H   0  0
   -1.1218  -27.4918   48.0992 H   0  0
   -0.5042  -27.3512   49.7184 H   0  0
   -3.3160  -27.7254   48.7805 H   0  0
   -2.4626  -28.5087   50.0879 H   0  0
   -3.8755  -29.2184   51.2900 H   0  0
   -5.9522  -30.0219   52.4018 H   0  0
  -10.1745  -30.0917   53.6239 H   0  0
   -7.1149  -28.5628   55.1519 H   0  0
   -8.7450  -29.6588   54.9693 H   0  0
   -9.9030  -27.8081   54.2021 H   0  0
   -8.2724  -26.7125   54.3832 H   0  0
   -7.4381  -25.9703   52.5661 H   0  0
   -5.3692  -25.1613   51.4546 H   0  0
   -2.8967  -25.0436   51.8924 H   0  0
   -3.5802  -24.5736   50.3534 H   0  0
   -1.3200  -23.8456   50.2903 H   0  0
   -0.7167  -25.3417   50.9833 H   0  0
  1  2  1  0
  2  3  1  0
  2  4  1  0
  4  5  2  0
  4  9  1  0
  5  6  1  0
  6  7  2  0
  7  8  1  0
  8  9  2  0
  9 10  1  0
 10 11  1  0
 10 20  1  0
 10 36  1  0
 11 12  2  0
 11 13  1  0
 13 14  1  0
 14 15  2  0
 14 19  1  0
 15 16  1  0
 16 17  2  0
 17 18  1  0
 18 19  2  0
 20 21  1  0
 21 22  1  0
 22 23  1  0
 22 35  1  0
 23 24  2  0
 23 34  1  0
 24 25  1  0
 25 26  2  0
 26 27  1  0
 26 33  1  0
 27 28  1  0
 27 31  1  0
 27 32  1  0
 28 29  2  0
 28 30  1  0
 31 32  1  0
 33 34  2  0
 35 36  1  0
  1 37  1  0
  1 38  1  0
  1 39  1  0
  2 40  1  0
  3 41  1  0
  3 42  1  0
  3 43  1  0
  5 44  1  0
  6 45  1  0
  7 46  1  0
  8 47  1  0
 13 48  1  0
 15 49  1  0
 16 50  1  0
 18 51  1  0
 19 52  1  0
 20 53  1  0
 20 54  1  0
 21 55  1  0
 21 56  1  0
 24 57  1  0
 25 58  1  0
 30 59  1  0
 31 60  1  0
 31 61  1  0
 32 62  1  0
 32 63  1  0
 33 64  1  0
 34 65  1  0
 35 66  1  0
 35 67  1  0
 36 68  1  0
 36 69  1  0
M  END
> <Name>
Molecule

> <AbsoluteEnergy>
74.2058

> <Clean Energy>
200.853

> <ConfNumber>
59

> <MOL_NUMBER>
4

> <RelativeEnergy>
12.6833

> <POSE_NUMBER>
6

> <LibDockScore>
134.994

> <HotSpots>
2.67,-23.92,48.98,A,32,5
-5.13,-22.92,46.19,A,18,16
-8.73,-28.12,54.38,A,70,32

$$$$
Molecule
  SciTegic05072616053D

 69 73  0  0  0  0            999 V2000
    2.4814  -25.0517   50.9309 C   0  0  0  1  0  0
    1.5855  -24.1304   50.0835 C   0  0  0  1  0  0
    2.0887  -22.6675   50.1367 C   0  0  0  1  0  0
    1.4174  -24.6733   48.6787 C   0  0  0  1  0  0
    2.5861  -24.6340   47.8745 C   0  0  0  1  0  0
    2.5843  -25.0489   46.5401 C   0  0  0  1  0  0
    1.4097  -25.5369   45.9736 C   0  0  0  1  0  0
    0.2510  -25.6254   46.7517 C   0  0  0  1  0  0
    0.2072  -25.2209   48.1136 C   0  0  0  1  0  0
   -1.1658  -25.4561   48.7850 C   0  0  0  1  0  0
   -2.2816  -24.8248   47.9324 C   0  0  0  1  0  0
   -3.1781  -25.5221   47.5141 O   0  0  0  1  0  0
   -2.2434  -23.4650   47.6452 N   0  0  0  1  0  0
   -3.1361  -22.7643   46.8451 C   0  0  0  1  0  0
   -4.4468  -23.2221   46.5728 C   0  0  0  1  0  0
   -5.2907  -22.4705   45.7345 C   0  0  0  1  0  0
   -4.8829  -21.2912   45.1861 N   0  0  0  1  0  0
   -3.6314  -20.8216   45.4507 C   0  0  0  1  0  0
   -2.7396  -21.5315   46.2762 C   0  0  0  1  0  0
   -1.3215  -26.9984   48.9523 C   0  0  0  1  0  0
   -2.6509  -27.5209   49.5329 C   0  0  0  1  0  0
   -3.3140  -26.6461   50.5486 N   0  0  0  1  0  0
   -4.4391  -27.1124   51.2320 C   0  0  0  1  0  0
   -4.6489  -28.4937   51.4711 C   0  0  0  1  0  0
   -5.8111  -28.9428   52.1265 C   0  0  0  1  0  0
   -6.7800  -28.0228   52.5643 C   0  0  0  1  0  0
   -8.0403  -28.5043   53.2558 C   0  0  0  1  0  0
   -8.9282  -29.3778   52.3710 C   0  0  0  1  0  0
   -9.0273  -29.1196   51.1927 O   0  0  0  1  0  0
   -9.5810  -30.4076   52.9154 O   0  0  0  1  0  0
   -7.9792  -28.7978   54.7482 C   0  0  0  1  0  0
   -8.7394  -27.5918   54.2541 C   0  0  0  1  0  0
   -6.5735  -26.6484   52.3487 C   0  0  0  1  0  0
   -5.4146  -26.1985   51.6943 C   0  0  0  1  0  0
   -2.8202  -25.2496   50.7807 C   0  0  0  1  0  0
   -1.4122  -24.9327   50.2213 C   0  0  0  1  0  0
    2.4720  -24.7005   51.9627 H   0  0
    3.5004  -25.0028   50.5469 H   0  0
    2.1161  -26.0776   50.8845 H   0  0
    0.5841  -24.1157   50.5138 H   0  0
    3.1099  -22.6320   49.7572 H   0  0
    2.0815  -22.3298   51.1730 H   0  0
    1.4458  -22.0269   49.5330 H   0  0
    3.5152  -24.2684   48.3118 H   0  0
    3.4966  -24.9909   45.9465 H   0  0
    1.3934  -25.8483   44.9292 H   0  0
   -0.6561  -26.0210   46.2948 H   0  0
   -1.4465  -22.9022   48.0846 H   0  0
   -4.8020  -24.1547   47.0113 H   0  0
   -6.2933  -22.8397   45.5188 H   0  0
   -3.3139  -19.8751   45.0133 H   0  0
   -1.7454  -21.1321   46.4767 H   0  0
   -1.1686  -27.4649   47.9791 H   0  0
   -0.5097  -27.3582   49.5845 H   0  0
   -3.3482  -27.6824   48.7108 H   0  0
   -2.4730  -28.4970   49.9841 H   0  0
   -3.9017  -29.2166   51.1437 H   0  0
   -5.9606  -30.0092   52.2954 H   0  0
  -10.1499  -29.9881   53.6918 H   0  0
   -7.0139  -28.5196   55.1712 H   0  0
   -8.6500  -29.6119   55.0227 H   0  0
   -9.8160  -27.7621   54.2656 H   0  0
   -8.1795  -26.6701   54.4125 H   0  0
   -7.3167  -25.9284   52.6912 H   0  0
   -5.2651  -25.1298   51.5406 H   0  0
   -2.8183  -25.0567   51.8535 H   0  0
   -3.5333  -24.5532   50.3395 H   0  0
   -1.2663  -23.8526   50.2321 H   0  0
   -0.6654  -25.3670   50.8860 H   0  0
  1  2  1  0
  2  3  1  0
  2  4  1  0
  4  5  2  0
  4  9  1  0
  5  6  1  0
  6  7  2  0
  7  8  1  0
  8  9  2  0
  9 10  1  0
 10 11  1  0
 10 20  1  0
 10 36  1  0
 11 12  2  0
 11 13  1  0
 13 14  1  0
 14 15  2  0
 14 19  1  0
 15 16  1  0
 16 17  2  0
 17 18  1  0
 18 19  2  0
 20 21  1  0
 21 22  1  0
 22 23  1  0
 22 35  1  0
 23 24  2  0
 23 34  1  0
 24 25  1  0
 25 26  2  0
 26 27  1  0
 26 33  1  0
 27 28  1  0
 27 31  1  0
 27 32  1  0
 28 29  2  0
 28 30  1  0
 31 32  1  0
 33 34  2  0
 35 36  1  0
  1 37  1  0
  1 38  1  0
  1 39  1  0
  2 40  1  0
  3 41  1  0
  3 42  1  0
  3 43  1  0
  5 44  1  0
  6 45  1  0
  7 46  1  0
  8 47  1  0
 13 48  1  0
 15 49  1  0
 16 50  1  0
 18 51  1  0
 19 52  1  0
 20 53  1  0
 20 54  1  0
 21 55  1  0
 21 56  1  0
 24 57  1  0
 25 58  1  0
 30 59  1  0
 31 60  1  0
 31 61  1  0
 32 62  1  0
 32 63  1  0
 33 64  1  0
 34 65  1  0
 35 66  1  0
 35 67  1  0
 36 68  1  0
 36 69  1  0
M  END
> <Name>
Molecule

> <AbsoluteEnergy>
74.2058

> <Clean Energy>
200.853

> <ConfNumber>
59

> <MOL_NUMBER>
4

> <RelativeEnergy>
12.6833

> <POSE_NUMBER>
7

> <LibDockScore>
134.9189

> <HotSpots>
1.87,-24.92,46.78,A,22,6
-4.93,-21.52,45.19,A,11,18
-6.33,-26.32,51.98,A,57,34

$$$$
Molecule
  SciTegic05072616053D

 69 73  0  0  0  0            999 V2000
    1.6263  -26.0020   47.3575 C   0  0  0  1  0  0
    0.8848  -24.8064   47.9886 C   0  0  0  1  0  0
    1.2399  -23.4984   47.2521 C   0  0  0  1  0  0
    1.1398  -24.6981   49.4780 C   0  0  0  1  0  0
    2.4919  -24.7326   49.8878 C   0  0  0  1  0  0
    2.8468  -24.6186   51.2365 C   0  0  0  1  0  0
    1.8526  -24.4485   52.2013 C   0  0  0  1  0  0
    0.5081  -24.4044   51.8172 C   0  0  0  1  0  0
    0.1057  -24.5656   50.4662 C   0  0  0  1  0  0
   -1.3912  -24.6084   50.1159 C   0  0  0  1  0  0
   -1.7666  -23.5696   49.0366 C   0  0  0  1  0  0
   -1.0453  -22.6215   48.8221 O   0  0  0  1  0  0
   -2.9483  -23.7409   48.3233 N   0  0  0  1  0  0
   -3.4851  -22.9693   47.2971 C   0  0  0  1  0  0
   -2.8643  -21.8266   46.7326 C   0  0  0  1  0  0
   -3.5087  -21.1197   45.6966 C   0  0  0  1  0  0
   -4.7189  -21.5152   45.2103 N   0  0  0  1  0  0
   -5.3305  -22.6151   45.7324 C   0  0  0  1  0  0
   -4.7406  -23.3543   46.7729 C   0  0  0  1  0  0
   -1.7235  -26.0837   49.6596 C   0  0  0  1  0  0
   -1.8459  -27.0915   50.8166 C   0  0  0  1  0  0
   -2.8740  -26.5790   51.7355 N   0  0  0  1  0  0
   -4.1056  -27.1708   51.8800 C   0  0  0  1  0  0
   -4.2827  -28.5632   51.7404 C   0  0  0  1  0  0
   -5.5548  -29.1254   51.9419 C   0  0  0  1  0  0
   -6.6465  -28.3040   52.2825 C   0  0  0  1  0  0
   -7.9920  -28.9082   52.5776 C   0  0  0  1  0  0
   -8.4181  -28.6029   54.0041 C   0  0  0  1  0  0
   -8.2128  -29.4302   54.8620 O   0  0  0  1  0  0
   -8.9863  -27.4303   54.2854 O   0  0  0  1  0  0
   -8.3902  -30.2338   51.9501 C   0  0  0  1  0  0
   -9.0459  -28.9570   51.4837 C   0  0  0  1  0  0
   -6.4775  -26.9121   52.3684 C   0  0  0  1  0  0
   -5.2111  -26.3490   52.1771 C   0  0  0  1  0  0
   -2.5396  -25.3108   52.4046 C   0  0  0  1  0  0
   -2.3262  -24.2212   51.3329 C   0  0  0  1  0  0
    2.7004  -25.8283   47.4219 H   0  0
    1.3392  -26.0852   46.3093 H   0  0
    1.3689  -26.9207   47.8846 H   0  0
   -0.1846  -24.9816   47.8714 H   0  0
    0.9543  -23.5916   46.2043 H   0  0
    2.3156  -23.3347   47.3170 H   0  0
    0.7111  -22.6600   47.7054 H   0  0
    3.2742  -24.8504   49.1380 H   0  0
    3.8950  -24.6624   51.5324 H   0  0
    2.1234  -24.3502   53.2525 H   0  0
   -0.2538  -24.2412   52.5794 H   0  0
   -3.5313  -24.5926   48.6056 H   0  0
   -1.8922  -21.4956   47.0982 H   0  0
   -3.0280  -20.2369   45.2751 H   0  0
   -6.2962  -22.9282   45.3356 H   0  0
   -5.2531  -24.2274   47.1769 H   0  0
   -0.9441  -26.4262   48.9789 H   0  0
   -2.6598  -26.0766   49.1016 H   0  0
   -0.8924  -27.1719   51.3386 H   0  0
   -2.1504  -28.0632   50.4279 H   0  0
   -3.4376  -29.1995   51.4777 H   0  0
   -5.6968  -30.2007   51.8342 H   0  0
   -9.8151  -27.3727   53.6433 H   0  0
   -9.0459  -30.8063   52.6061 H   0  0
   -7.6388  -30.5823   51.2415 H   0  0
   -8.6446  -28.6253   50.5261 H   0  0
  -10.0508  -28.8484   51.8917 H   0  0
   -7.3324  -26.2712   52.5839 H   0  0
   -5.0790  -25.2701   52.2582 H   0  0
   -3.3577  -25.0186   53.0629 H   0  0
   -1.6256  -25.4335   52.9857 H   0  0
   -1.9131  -23.3374   51.8191 H   0  0
   -3.3007  -23.9284   50.9422 H   0  0
  1  2  1  0
  2  3  1  0
  2  4  1  0
  4  5  2  0
  4  9  1  0
  5  6  1  0
  6  7  2  0
  7  8  1  0
  8  9  2  0
  9 10  1  0
 10 11  1  0
 10 20  1  0
 10 36  1  0
 11 12  2  0
 11 13  1  0
 13 14  1  0
 14 15  2  0
 14 19  1  0
 15 16  1  0
 16 17  2  0
 17 18  1  0
 18 19  2  0
 20 21  1  0
 21 22  1  0
 22 23  1  0
 22 35  1  0
 23 24  2  0
 23 34  1  0
 24 25  1  0
 25 26  2  0
 26 27  1  0
 26 33  1  0
 27 28  1  0
 27 31  1  0
 27 32  1  0
 28 29  2  0
 28 30  1  0
 31 32  1  0
 33 34  2  0
 35 36  1  0
  1 37  1  0
  1 38  1  0
  1 39  1  0
  2 40  1  0
  3 41  1  0
  3 42  1  0
  3 43  1  0
  5 44  1  0
  6 45  1  0
  7 46  1  0
  8 47  1  0
 13 48  1  0
 15 49  1  0
 16 50  1  0
 18 51  1  0
 19 52  1  0
 20 53  1  0
 20 54  1  0
 21 55  1  0
 21 56  1  0
 24 57  1  0
 25 58  1  0
 30 59  1  0
 31 60  1  0
 31 61  1  0
 32 62  1  0
 32 63  1  0
 33 64  1  0
 34 65  1  0
 35 66  1  0
 35 67  1  0
 36 68  1  0
 36 69  1  0
M  END
> <Name>
Molecule

> <AbsoluteEnergy>
69.5743

> <Clean Energy>
200.853

> <ConfNumber>
30

> <MOL_NUMBER>
4

> <RelativeEnergy>
8.0518

> <POSE_NUMBER>
8

> <LibDockScore>
134.8393

> <HotSpots>
0.87,-24.32,52.78,A,63,7
-3.53,-22.32,46.59,A,20,15
-9.33,-29.92,51.19,A,52,32

$$$$
Molecule
  SciTegic05072616053D

 69 73  0  0  0  0            999 V2000
    1.2523  -23.3108   47.7931 C   0  0  0  1  0  0
    0.8001  -24.6444   48.4249 C   0  0  0  1  0  0
    1.5676  -25.8259   47.7990 C   0  0  0  1  0  0
    0.9223  -24.6290   49.9345 C   0  0  0  1  0  0
    2.2338  -24.5998   50.4627 C   0  0  0  1  0  0
    2.4655  -24.5889   51.8430 C   0  0  0  1  0  0
    1.3828  -24.5939   52.7244 C   0  0  0  1  0  0
    0.0783  -24.6044   52.2238 C   0  0  0  1  0  0
   -0.1987  -24.6442   50.8321 C   0  0  0  1  0  0
   -1.6594  -24.7177   50.3533 C   0  0  0  1  0  0
   -1.9998  -23.6379   49.3058 C   0  0  0  1  0  0
   -1.2819  -22.6742   49.1586 O   0  0  0  1  0  0
   -3.1556  -23.7906   48.5460 N   0  0  0  1  0  0
   -3.5968  -23.0345   47.4688 C   0  0  0  1  0  0
   -2.8336  -22.0107   46.8619 C   0  0  0  1  0  0
   -3.3691  -21.2900   45.7779 C   0  0  0  1  0  0
   -4.6077  -21.5628   45.2817 N   0  0  0  1  0  0
   -5.3570  -22.5525   45.8431 C   0  0  0  1  0  0
   -4.8801  -23.3013   46.9356 C   0  0  0  1  0  0
   -1.9055  -26.1684   49.7733 C   0  0  0  1  0  0
   -2.1831  -27.2531   50.8261 C   0  0  0  1  0  0
   -3.2828  -26.7748   51.6795 N   0  0  0  1  0  0
   -4.5360  -27.3363   51.6978 C   0  0  0  1  0  0
   -5.6514  -26.5078   51.9355 C   0  0  0  1  0  0
   -6.9191  -27.0730   52.1221 C   0  0  0  1  0  0
   -7.0768  -28.4709   52.0624 C   0  0  0  1  0  0
   -8.3871  -29.1234   52.4371 C   0  0  0  1  0  0
   -8.8168  -28.7844   53.8717 C   0  0  0  1  0  0
   -8.8927  -27.6203   54.2085 O   0  0  0  1  0  0
   -9.0927  -29.7752   54.7241 O   0  0  0  1  0  0
   -8.6765  -30.5122   51.8939 C   0  0  0  1  0  0
   -9.4606  -29.3287   51.3789 C   0  0  0  1  0  0
   -5.9905  -29.2812   51.6807 C   0  0  0  1  0  0
   -4.7184  -28.7182   51.5025 C   0  0  0  1  0  0
   -2.9727  -25.5787   52.4775 C   0  0  0  1  0  0
   -2.6909  -24.4140   51.5150 C   0  0  0  1  0  0
    1.0605  -23.3418   46.7205 H   0  0
    2.3212  -23.1808   47.9626 H   0  0
    0.7046  -22.4819   48.2416 H   0  0
   -0.2593  -24.7755   48.2045 H   0  0
    2.6353  -25.6867   47.9684 H   0  0
    1.3747  -25.8476   46.7264 H   0  0
    1.2418  -26.7627   48.2511 H   0  0
    3.0831  -24.5855   49.7797 H   0  0
    3.4853  -24.5766   52.2276 H   0  0
    1.5547  -24.5896   53.8007 H   0  0
   -0.7551  -24.5812   52.9259 H   0  0
   -3.7916  -24.6024   48.8314 H   0  0
   -1.8345  -21.7804   47.2320 H   0  0
   -2.7781  -20.4942   45.3246 H   0  0
   -6.3456  -22.7689   45.4382 H   0  0
   -5.4990  -24.0861   47.3705 H   0  0
   -1.0333  -26.4655   49.1909 H   0  0
   -2.7486  -26.1304   49.0835 H   0  0
   -1.2916  -27.4153   51.4320 H   0  0
   -2.4775  -28.1787   50.3314 H   0  0
   -5.5270  -25.4256   51.9741 H   0  0
   -7.7806  -26.4330   52.3129 H   0  0
   -8.2261  -30.3678   54.7392 H   0  0
   -9.2596  -31.1046   52.5990 H   0  0
   -7.9145  -30.8301   51.1823 H   0  0
   -9.1158  -29.0161   50.3933 H   0  0
  -10.4604  -29.2896   51.8113 H   0  0
   -6.1387  -30.3495   51.5232 H   0  0
   -3.8760  -29.3471   51.2145 H   0  0
   -3.8237  -25.3306   53.1118 H   0  0
   -2.0922  -25.7654   53.0923 H   0  0
   -2.3220  -23.5682   52.0952 H   0  0
   -3.6344  -24.0984   51.0698 H   0  0
  1  2  1  0
  2  3  1  0
  2  4  1  0
  4  5  2  0
  4  9  1  0
  5  6  1  0
  6  7  2  0
  7  8  1  0
  8  9  2  0
  9 10  1  0
 10 11  1  0
 10 20  1  0
 10 36  1  0
 11 12  2  0
 11 13  1  0
 13 14  1  0
 14 15  2  0
 14 19  1  0
 15 16  1  0
 16 17  2  0
 17 18  1  0
 18 19  2  0
 20 21  1  0
 21 22  1  0
 22 23  1  0
 22 35  1  0
 23 24  2  0
 23 34  1  0
 24 25  1  0
 25 26  2  0
 26 27  1  0
 26 33  1  0
 27 28  1  0
 27 31  1  0
 27 32  1  0
 28 29  2  0
 28 30  1  0
 31 32  1  0
 33 34  2  0
 35 36  1  0
  1 37  1  0
  1 38  1  0
  1 39  1  0
  2 40  1  0
  3 41  1  0
  3 42  1  0
  3 43  1  0
  5 44  1  0
  6 45  1  0
  7 46  1  0
  8 47  1  0
 13 48  1  0
 15 49  1  0
 16 50  1  0
 18 51  1  0
 19 52  1  0
 20 53  1  0
 20 54  1  0
 21 55  1  0
 21 56  1  0
 24 57  1  0
 25 58  1  0
 30 59  1  0
 31 60  1  0
 31 61  1  0
 32 62  1  0
 32 63  1  0
 33 64  1  0
 34 65  1  0
 35 66  1  0
 35 67  1  0
 36 68  1  0
 36 69  1  0
M  END
> <Name>
Molecule

> <AbsoluteEnergy>
73.5279

> <Clean Energy>
200.853

> <ConfNumber>
54

> <MOL_NUMBER>
4

> <RelativeEnergy>
12.0054

> <POSE_NUMBER>
9

> <LibDockScore>
134.1798

> <HotSpots>
1.27,-23.52,47.59,A,27,1
0.87,-24.32,52.78,A,63,7
-9.33,-29.92,51.19,A,52,31

$$$$
Molecule
  SciTegic05072616053D

 69 73  0  0  0  0            999 V2000
    1.3837  -25.6990   46.7909 C   0  0  0  1  0  0
    0.7433  -24.4716   47.4699 C   0  0  0  1  0  0
    1.1315  -23.1769   46.7266 C   0  0  0  1  0  0
    1.0810  -24.3940   48.9447 C   0  0  0  1  0  0
    2.4541  -24.4281   49.2772 C   0  0  0  1  0  0
    2.8837  -24.3411   50.6060 C   0  0  0  1  0  0
    1.9443  -24.1990   51.6286 C   0  0  0  1  0  0
    0.5802  -24.1560   51.3216 C   0  0  0  1  0  0
    0.1033  -24.2904   49.9921 C   0  0  0  1  0  0
   -1.4106  -24.3360   49.7253 C   0  0  0  1  0  0
   -1.8490  -23.2896   48.6777 C   0  0  0  1  0  0
   -1.1157  -22.3724   48.3842 O   0  0  0  1  0  0
   -3.1009  -23.4178   48.0851 N   0  0  0  1  0  0
   -3.6854  -22.6618   47.0734 C   0  0  0  1  0  0
   -3.0080  -21.6920   46.2921 C   0  0  0  1  0  0
   -3.7086  -20.9826   45.2950 C   0  0  0  1  0  0
   -5.0295  -21.2139   45.0515 N   0  0  0  1  0  0
   -5.6987  -22.1469   45.7849 C   0  0  0  1  0  0
   -5.0553  -22.8786   46.7986 C   0  0  0  1  0  0
   -1.7628  -25.8087   49.2755 C   0  0  0  1  0  0
   -1.8172  -26.8267   50.4288 C   0  0  0  1  0  0
   -2.7942  -26.3259   51.4080 N   0  0  0  1  0  0
   -4.0138  -26.9235   51.6158 C   0  0  0  1  0  0
   -4.1835  -28.3206   51.5198 C   0  0  0  1  0  0
   -5.4416  -28.8875   51.7854 C   0  0  0  1  0  0
   -6.5268  -28.0662   52.1465 C   0  0  0  1  0  0
   -7.8542  -28.6733   52.5094 C   0  0  0  1  0  0
   -8.1916  -28.3988   53.9656 C   0  0  0  1  0  0
   -7.8576  -29.2060   54.8020 O   0  0  0  1  0  0
   -8.8254  -27.2732   54.2943 O   0  0  0  1  0  0
   -8.2953  -29.9834   51.8781 C   0  0  0  1  0  0
   -8.9729  -28.6947   51.4809 C   0  0  0  1  0  0
   -6.3673  -26.6713   52.1891 C   0  0  0  1  0  0
   -5.1144  -26.1031   51.9339 C   0  0  0  1  0  0
   -2.4272  -25.0621   52.0683 C   0  0  0  1  0  0
   -2.2776  -23.9627   50.9959 C   0  0  0  1  0  0
    2.4677  -25.5852   46.8003 H   0  0
    1.0383  -25.7547   45.7586 H   0  0
    1.1035  -26.6080   47.3232 H   0  0
   -0.3388  -24.5866   47.4075 H   0  0
    0.7871  -23.2427   45.6945 H   0  0
    2.2165  -23.0732   46.7362 H   0  0
    0.6742  -22.3158   47.2140 H   0  0
    3.1936  -24.5241   48.4823 H   0  0
    3.9471  -24.3841   50.8415 H   0  0
    2.2732  -24.1216   52.6649 H   0  0
   -0.1386  -24.0149   52.1288 H   0  0
   -3.7042  -24.2164   48.4634 H   0  0
   -1.9493  -21.4954   46.4616 H   0  0
   -3.1818  -20.2322   44.7056 H   0  0
   -6.7539  -22.3297   45.5818 H   0  0
   -5.6147  -23.6157   47.3747 H   0  0
   -1.0213  -26.1424   48.5496 H   0  0
   -2.7287  -25.8005   48.7705 H   0  0
   -0.8358  -26.9079   50.8961 H   0  0
   -2.1397  -27.7963   50.0492 H   0  0
   -3.3435  -28.9569   51.2412 H   0  0
   -5.5778  -29.9664   51.7116 H   0  0
   -9.7031  -27.2813   53.7181 H   0  0
   -8.9123  -30.5686   52.5600 H   0  0
   -7.5899  -30.3181   51.1175 H   0  0
   -8.6292  -28.3428   50.5082 H   0  0
   -9.9507  -28.5925   51.9517 H   0  0
   -7.2191  -26.0319   52.4208 H   0  0
   -4.9892  -25.0214   51.9814 H   0  0
   -3.2083  -24.7786   52.7738 H   0  0
   -1.4818  -25.1862   52.5965 H   0  0
   -1.8410  -23.0815   51.4659 H   0  0
   -3.2734  -23.6704   50.6627 H   0  0
  1  2  1  0
  2  3  1  0
  2  4  1  0
  4  5  2  0
  4  9  1  0
  5  6  1  0
  6  7  2  0
  7  8  1  0
  8  9  2  0
  9 10  1  0
 10 11  1  0
 10 20  1  0
 10 36  1  0
 11 12  2  0
 11 13  1  0
 13 14  1  0
 14 15  2  0
 14 19  1  0
 15 16  1  0
 16 17  2  0
 17 18  1  0
 18 19  2  0
 20 21  1  0
 21 22  1  0
 22 23  1  0
 22 35  1  0
 23 24  2  0
 23 34  1  0
 24 25  1  0
 25 26  2  0
 26 27  1  0
 26 33  1  0
 27 28  1  0
 27 31  1  0
 27 32  1  0
 28 29  2  0
 28 30  1  0
 31 32  1  0
 33 34  2  0
 35 36  1  0
  1 37  1  0
  1 38  1  0
  1 39  1  0
  2 40  1  0
  3 41  1  0
  3 42  1  0
  3 43  1  0
  5 44  1  0
  6 45  1  0
  7 46  1  0
  8 47  1  0
 13 48  1  0
 15 49  1  0
 16 50  1  0
 18 51  1  0
 19 52  1  0
 20 53  1  0
 20 54  1  0
 21 55  1  0
 21 56  1  0
 24 57  1  0
 25 58  1  0
 30 59  1  0
 31 60  1  0
 31 61  1  0
 32 62  1  0
 32 63  1  0
 33 64  1  0
 34 65  1  0
 35 66  1  0
 35 67  1  0
 36 68  1  0
 36 69  1  0
M  END
> <Name>
Molecule

> <AbsoluteEnergy>
69.5743

> <Clean Energy>
200.853

> <ConfNumber>
30

> <MOL_NUMBER>
4

> <RelativeEnergy>
8.0518

> <POSE_NUMBER>
10

> <LibDockScore>
133.823

> <HotSpots>
1.87,-25.32,48.38,A,30,1
-3.53,-22.32,46.59,A,20,15
-7.13,-31.92,50.98,A,49,31

$$$$
Molecule
  SciTegic05072616053D

 69 73  0  0  0  0            999 V2000
   -0.3425  -23.6152   53.2443 C   0  0  0  1  0  0
   -0.3974  -24.8206   52.2849 C   0  0  0  1  0  0
    0.0099  -26.1240   52.9995 C   0  0  0  1  0  0
    0.3988  -24.5920   51.0201 C   0  0  0  1  0  0
    1.7402  -24.2007   51.2191 C   0  0  0  1  0  0
    2.6235  -24.0336   50.1467 C   0  0  0  1  0  0
    2.1783  -24.2731   48.8469 C   0  0  0  1  0  0
    0.8446  -24.6468   48.6234 C   0  0  0  1  0  0
   -0.1050  -24.7608   49.6844 C   0  0  0  1  0  0
   -1.5873  -25.0809   49.3592 C   0  0  0  1  0  0
   -2.0544  -24.5204   47.9804 C   0  0  0  1  0  0
   -2.5313  -25.2859   47.1709 O   0  0  0  1  0  0
   -1.9507  -23.1646   47.6411 N   0  0  0  1  0  0
   -2.8239  -22.4752   46.8036 C   0  0  0  1  0  0
   -4.1427  -22.9334   46.5929 C   0  0  0  1  0  0
   -5.0107  -22.2240   45.7440 C   0  0  0  1  0  0
   -4.6102  -21.0853   45.1047 N   0  0  0  1  0  0
   -3.3430  -20.6167   45.2992 C   0  0  0  1  0  0
   -2.4315  -21.2812   46.1473 C   0  0  0  1  0  0
   -1.7729  -26.6549   49.4007 C   0  0  0  1  0  0
   -2.6231  -27.3070   50.5278 C   0  0  0  1  0  0
   -3.8716  -26.5710   50.8863 N   0  0  0  1  0  0
   -4.9034  -27.2012   51.6137 C   0  0  0  1  0  0
   -6.1242  -26.5293   51.8628 C   0  0  0  1  0  0
   -7.1691  -27.1484   52.5789 C   0  0  0  1  0  0
   -7.0399  -28.4736   53.0426 C   0  0  0  1  0  0
   -8.1874  -29.1785   53.7717 C   0  0  0  1  0  0
   -8.0588  -29.2543   55.3078 C   0  0  0  1  0  0
   -6.9720  -29.4768   55.7956 O   0  0  0  1  0  0
   -9.1326  -29.0876   56.1035 O   0  0  0  1  0  0
   -9.5876  -29.1191   53.1668 C   0  0  0  1  0  0
   -8.7860  -30.3950   53.0760 C   0  0  0  1  0  0
   -5.8279  -29.1518   52.8120 C   0  0  0  1  0  0
   -4.7736  -28.5250   52.1148 C   0  0  0  1  0  0
   -3.9804  -25.1495   50.4159 C   0  0  0  1  0  0
   -2.6254  -24.4056   50.3264 C   0  0  0  1  0  0
    0.6736  -23.5190   53.6269 H   0  0
   -1.0197  -23.8009   54.0779 H   0  0
   -0.6331  -22.7030   52.7232 H   0  0
   -1.4356  -24.9304   51.9715 H   0  0
   -0.6699  -26.2917   53.8349 H   0  0
    1.0235  -26.0098   53.3839 H   0  0
   -0.0344  -26.9650   52.3075 H   0  0
    2.0971  -24.0242   52.2338 H   0  0
    3.6515  -23.7187   50.3259 H   0  0
    2.8649  -24.1702   48.0066 H   0  0
    0.5216  -24.8576   47.6039 H   0  0
   -1.1340  -22.6144   48.0597 H   0  0
   -4.4890  -23.8397   47.0897 H   0  0
   -6.0259  -22.5910   45.5927 H   0  0
   -3.0276  -19.7076   44.7873 H   0  0
   -1.4299  -20.8782   46.2972 H   0  0
   -0.7824  -27.1091   49.4274 H   0  0
   -2.1930  -26.9677   48.4448 H   0  0
   -2.0070  -27.3999   51.4222 H   0  0
   -2.8926  -28.3178   50.2218 H   0  0
   -6.2592  -25.5127   51.4935 H   0  0
   -8.0877  -26.5959   52.7764 H   0  0
   -9.8176  -29.8070   55.7633 H   0  0
   -9.5910  -28.5775   52.2209 H   0  0
  -10.3570  -29.1806   53.9364 H   0  0
   -9.1294  -31.1382   53.7956 H   0  0
   -8.3623  -30.5345   52.0814 H   0  0
   -5.7028  -30.1716   53.1759 H   0  0
   -3.8409  -29.0667   51.9573 H   0  0
   -4.6358  -24.6040   51.0948 H   0  0
   -4.4511  -25.1409   49.4328 H   0  0
   -2.8077  -23.3846   49.9912 H   0  0
   -2.1907  -24.3477   51.3243 H   0  0
  1  2  1  0
  2  3  1  0
  2  4  1  0
  4  5  2  0
  4  9  1  0
  5  6  1  0
  6  7  2  0
  7  8  1  0
  8  9  2  0
  9 10  1  0
 10 11  1  0
 10 20  1  0
 10 36  1  0
 11 12  2  0
 11 13  1  0
 13 14  1  0
 14 15  2  0
 14 19  1  0
 15 16  1  0
 16 17  2  0
 17 18  1  0
 18 19  2  0
 20 21  1  0
 21 22  1  0
 22 23  1  0
 22 35  1  0
 23 24  2  0
 23 34  1  0
 24 25  1  0
 25 26  2  0
 26 27  1  0
 26 33  1  0
 27 28  1  0
 27 31  1  0
 27 32  1  0
 28 29  2  0
 28 30  1  0
 31 32  1  0
 33 34  2  0
 35 36  1  0
  1 37  1  0
  1 38  1  0
  1 39  1  0
  2 40  1  0
  3 41  1  0
  3 42  1  0
  3 43  1  0
  5 44  1  0
  6 45  1  0
  7 46  1  0
  8 47  1  0
 13 48  1  0
 15 49  1  0
 16 50  1  0
 18 51  1  0
 19 52  1  0
 20 53  1  0
 20 54  1  0
 21 55  1  0
 21 56  1  0
 24 57  1  0
 25 58  1  0
 30 59  1  0
 31 60  1  0
 31 61  1  0
 32 62  1  0
 32 63  1  0
 33 64  1  0
 34 65  1  0
 35 66  1  0
 35 67  1  0
 36 68  1  0
 36 69  1  0
M  END
> <Name>
Molecule

> <AbsoluteEnergy>
79.3902

> <Clean Energy>
200.853

> <ConfNumber>
94

> <MOL_NUMBER>
4

> <RelativeEnergy>
17.8677

> <POSE_NUMBER>
11

> <LibDockScore>
133.117

> <HotSpots>
1.67,-24.32,50.98,A,50,5
-4.93,-21.52,45.19,A,11,16
-6.33,-26.32,51.98,A,57,24

$$$$
Molecule
  SciTegic05072616053D

 69 73  0  0  0  0            999 V2000
   -0.4964  -23.5112   53.2650 C   0  0  0  1  0  0
   -0.5080  -24.7658   52.3694 C   0  0  0  1  0  0
   -0.0912  -26.0217   53.1597 C   0  0  0  1  0  0
    0.3105  -24.5876   51.1106 C   0  0  0  1  0  0
    1.6526  -24.2031   51.3180 C   0  0  0  1  0  0
    2.5544  -24.0807   50.2551 C   0  0  0  1  0  0
    2.1273  -24.3592   48.9569 C   0  0  0  1  0  0
    0.7934  -24.7271   48.7246 C   0  0  0  1  0  0
   -0.1739  -24.7961   49.7734 C   0  0  0  1  0  0
   -1.6541  -25.1124   49.4352 C   0  0  0  1  0  0
   -2.1012  -24.5706   48.0423 C   0  0  0  1  0  0
   -2.6272  -25.3333   47.2612 O   0  0  0  1  0  0
   -1.9246  -23.2342   47.6589 N   0  0  0  1  0  0
   -2.7884  -22.5106   46.8407 C   0  0  0  1  0  0
   -4.1133  -22.9451   46.6181 C   0  0  0  1  0  0
   -4.9717  -22.2012   45.7892 C   0  0  0  1  0  0
   -4.5559  -21.0510   45.1809 N   0  0  0  1  0  0
   -3.2825  -20.6050   45.3877 C   0  0  0  1  0  0
   -2.3801  -21.3045   46.2171 C   0  0  0  1  0  0
   -1.8499  -26.6844   49.4987 C   0  0  0  1  0  0
   -2.7177  -27.3138   50.6253 C   0  0  0  1  0  0
   -3.9658  -26.5649   50.9572 N   0  0  0  1  0  0
   -5.0101  -27.1776   51.6817 C   0  0  0  1  0  0
   -6.2187  -26.4838   51.9307 C   0  0  0  1  0  0
   -7.2759  -27.0851   52.6439 C   0  0  0  1  0  0
   -7.1719  -28.4136   53.1046 C   0  0  0  1  0  0
   -8.3333  -29.0988   53.8305 C   0  0  0  1  0  0
   -8.2740  -29.0633   55.3723 C   0  0  0  1  0  0
   -7.1944  -29.1201   55.9196 O   0  0  0  1  0  0
   -9.3987  -28.9808   56.1086 O   0  0  0  1  0  0
   -9.7051  -29.1225   53.1614 C   0  0  0  1  0  0
   -8.8675  -30.3778   53.1972 C   0  0  0  1  0  0
   -5.9723  -29.1136   52.8742 C   0  0  0  1  0  0
   -4.9056  -28.5047   52.1799 C   0  0  0  1  0  0
   -4.0602  -25.1502   50.4637 C   0  0  0  1  0  0
   -2.6996  -24.4160   50.3792 C   0  0  0  1  0  0
    0.5093  -23.3747   53.6625 H   0  0
   -1.1875  -23.6667   54.0934 H   0  0
   -0.7932  -22.6335   52.6909 H   0  0
   -1.5370  -24.9126   52.0413 H   0  0
   -0.7852  -26.1592   53.9889 H   0  0
    0.9116  -25.8673   53.5579 H   0  0
   -0.1048  -26.8984   52.5121 H   0  0
    1.9953  -23.9963   52.3318 H   0  0
    3.5827  -23.7701   50.4402 H   0  0
    2.8281  -24.2912   48.1248 H   0  0
    0.4843  -24.9688   47.7077 H   0  0
   -1.0553  -22.7288   48.0246 H   0  0
   -4.4717  -23.8598   47.0902 H   0  0
   -5.9917  -22.5502   45.6285 H   0  0
   -2.9548  -19.6866   44.9006 H   0  0
   -1.3732  -20.9191   46.3777 H   0  0
   -0.8626  -27.1440   49.5445 H   0  0
   -2.2604  -27.0094   48.5427 H   0  0
   -2.1131  -27.3965   51.5284 H   0  0
   -2.9897  -28.3276   50.3316 H   0  0
   -6.3343  -25.4640   51.5636 H   0  0
   -8.1844  -26.5162   52.8415 H   0  0
   -9.9747  -29.7985   55.7889 H   0  0
   -9.6787  -28.6486   52.1802 H   0  0
  -10.5075  -29.1524   53.8986 H   0  0
   -9.2245  -31.0786   53.9519 H   0  0
   -8.3948  -30.5741   52.2349 H   0  0
   -5.8666  -30.1364   53.2359 H   0  0
   -3.9829  -29.0632   52.0224 H   0  0
   -4.7203  -24.5904   51.1262 H   0  0
   -4.5190  -25.1540   49.4750 H   0  0
   -2.8715  -23.3992   50.0261 H   0  0
   -2.2766  -24.3452   51.3813 H   0  0
  1  2  1  0
  2  3  1  0
  2  4  1  0
  4  5  2  0
  4  9  1  0
  5  6  1  0
  6  7  2  0
  7  8  1  0
  8  9  2  0
  9 10  1  0
 10 11  1  0
 10 20  1  0
 10 36  1  0
 11 12  2  0
 11 13  1  0
 13 14  1  0
 14 15  2  0
 14 19  1  0
 15 16  1  0
 16 17  2  0
 17 18  1  0
 18 19  2  0
 20 21  1  0
 21 22  1  0
 22 23  1  0
 22 35  1  0
 23 24  2  0
 23 34  1  0
 24 25  1  0
 25 26  2  0
 26 27  1  0
 26 33  1  0
 27 28  1  0
 27 31  1  0
 27 32  1  0
 28 29  2  0
 28 30  1  0
 31 32  1  0
 33 34  2  0
 35 36  1  0
  1 37  1  0
  1 38  1  0
  1 39  1  0
  2 40  1  0
  3 41  1  0
  3 42  1  0
  3 43  1  0
  5 44  1  0
  6 45  1  0
  7 46  1  0
  8 47  1  0
 13 48  1  0
 15 49  1  0
 16 50  1  0
 18 51  1  0
 19 52  1  0
 20 53  1  0
 20 54  1  0
 21 55  1  0
 21 56  1  0
 24 57  1  0
 25 58  1  0
 30 59  1  0
 31 60  1  0
 31 61  1  0
 32 62  1  0
 32 63  1  0
 33 64  1  0
 34 65  1  0
 35 66  1  0
 35 67  1  0
 36 68  1  0
 36 69  1  0
M  END
> <Name>
Molecule

> <AbsoluteEnergy>
79.3902

> <Clean Energy>
200.853

> <ConfNumber>
94

> <MOL_NUMBER>
4

> <RelativeEnergy>
17.8677

> <POSE_NUMBER>
12

> <LibDockScore>
132.527

> <HotSpots>
0.87,-24.32,52.78,A,63,5
-2.53,-21.12,45.98,A,16,18
-7.93,-28.32,52.38,A,59,25

$$$$
Molecule
  SciTegic05072616053D

 69 73  0  0  0  0            999 V2000
    1.7074  -25.9502   53.2854 C   0  0  0  1  0  0
    0.8206  -24.8875   52.6054 C   0  0  0  1  0  0
    0.6983  -23.6278   53.4853 C   0  0  0  1  0  0
    1.2963  -24.5632   51.2076 C   0  0  0  1  0  0
    2.6650  -24.2336   51.0824 C   0  0  0  1  0  0
    3.2530  -24.0229   49.8324 C   0  0  0  1  0  0
    2.4795  -24.1548   48.6784 C   0  0  0  1  0  0
    1.1152  -24.4524   48.7817 C   0  0  0  1  0  0
    0.4620  -24.5920   50.0376 C   0  0  0  1  0  0
   -1.0718  -24.7932   50.0841 C   0  0  0  1  0  0
   -1.8429  -23.8186   49.1511 C   0  0  0  1  0  0
   -1.5716  -22.6375   49.1955 O   0  0  0  1  0  0
   -2.8456  -24.2510   48.2916 N   0  0  0  1  0  0
   -3.4815  -23.5044   47.3019 C   0  0  0  1  0  0
   -3.0056  -22.2546   46.8353 C   0  0  0  1  0  0
   -3.7119  -21.5625   45.8326 C   0  0  0  1  0  0
   -4.8517  -22.0711   45.2843 N   0  0  0  1  0  0
   -5.3225  -23.2776   45.7098 C   0  0  0  1  0  0
   -4.6593  -24.0133   46.7107 C   0  0  0  1  0  0
   -1.3600  -26.3016   49.7565 C   0  0  0  1  0  0
   -2.3348  -27.0713   50.6826 C   0  0  0  1  0  0
   -3.4047  -26.2686   51.3584 N   0  0  0  1  0  0
   -4.5917  -26.8778   51.7784 C   0  0  0  1  0  0
   -5.7809  -26.1283   51.9345 C   0  0  0  1  0  0
   -6.9704  -26.7406   52.3627 C   0  0  0  1  0  0
   -6.9983  -28.1173   52.6521 C   0  0  0  1  0  0
   -8.2798  -28.7747   53.1209 C   0  0  0  1  0  0
   -8.9554  -29.6151   52.0349 C   0  0  0  1  0  0
   -9.1409  -29.1152   50.9488 O   0  0  0  1  0  0
   -9.3361  -30.8730   52.2760 O   0  0  0  1  0  0
   -8.3808  -29.1622   54.5927 C   0  0  0  1  0  0
   -9.1955  -28.0080   54.0658 C   0  0  0  1  0  0
   -5.8268  -28.8765   52.4994 C   0  0  0  1  0  0
   -4.6377  -28.2647   52.0667 C   0  0  0  1  0  0
   -3.1668  -24.8142   51.6100 C   0  0  0  1  0  0
   -1.6897  -24.4058   51.4640 C   0  0  0  1  0  0
    1.2645  -26.2177   54.2447 H   0  0
    2.6975  -25.5271   53.4552 H   0  0
    1.7853  -26.8347   52.6532 H   0  0
   -0.1785  -25.3099   52.4980 H   0  0
    1.6939  -23.2175   53.6540 H   0  0
    0.2609  -23.9081   54.4435 H   0  0
    0.0696  -22.8856   52.9934 H   0  0
    3.2754  -24.1417   51.9808 H   0  0
    4.3077  -23.7576   49.7593 H   0  0
    2.9370  -24.0263   47.6974 H   0  0
    0.5339  -24.5815   47.8687 H   0  0
   -3.1636  -25.2667   48.4017 H   0  0
   -2.0930  -21.8286   47.2522 H   0  0
   -3.3388  -20.5984   45.4871 H   0  0
   -6.2322  -23.6816   45.2656 H   0  0
   -5.0555  -24.9773   47.0299 H   0  0
   -0.4102  -26.8363   49.7453 H   0  0
   -1.7419  -26.3620   48.7374 H   0  0
   -1.7522  -27.5783   51.4517 H   0  0
   -2.8151  -27.8571   50.0996 H   0  0
   -5.7743  -25.0598   51.7194 H   0  0
   -7.8772  -26.1457   52.4714 H   0  0
   -9.9644  -30.7951   53.1137 H   0  0
   -7.5132  -28.8190   55.1563 H   0  0
   -8.9892  -30.0563   54.7285 H   0  0
  -10.2400  -28.2846   53.9222 H   0  0
   -8.7638  -27.0478   54.3483 H   0  0
   -5.8397  -29.9444   52.7173 H   0  0
   -3.7363  -28.8666   51.9510 H   0  0
   -3.5029  -24.5697   52.6176 H   0  0
   -3.7653  -24.2322   50.9092 H   0  0
   -1.6077  -23.3273   51.5988 H   0  0
   -1.1125  -24.8827   52.2561 H   0  0
  1  2  1  0
  2  3  1  0
  2  4  1  0
  4  5  2  0
  4  9  1  0
  5  6  1  0
  6  7  2  0
  7  8  1  0
  8  9  2  0
  9 10  1  0
 10 11  1  0
 10 20  1  0
 10 36  1  0
 11 12  2  0
 11 13  1  0
 13 14  1  0
 14 15  2  0
 14 19  1  0
 15 16  1  0
 16 17  2  0
 17 18  1  0
 18 19  2  0
 20 21  1  0
 21 22  1  0
 22 23  1  0
 22 35  1  0
 23 24  2  0
 23 34  1  0
 24 25  1  0
 25 26  2  0
 26 27  1  0
 26 33  1  0
 27 28  1  0
 27 31  1  0
 27 32  1  0
 28 29  2  0
 28 30  1  0
 31 32  1  0
 33 34  2  0
 35 36  1  0
  1 37  1  0
  1 38  1  0
  1 39  1  0
  2 40  1  0
  3 41  1  0
  3 42  1  0
  3 43  1  0
  5 44  1  0
  6 45  1  0
  7 46  1  0
  8 47  1  0
 13 48  1  0
 15 49  1  0
 16 50  1  0
 18 51  1  0
 19 52  1  0
 20 53  1  0
 20 54  1  0
 21 55  1  0
 21 56  1  0
 24 57  1  0
 25 58  1  0
 30 59  1  0
 31 60  1  0
 31 61  1  0
 32 62  1  0
 32 63  1  0
 33 64  1  0
 34 65  1  0
 35 66  1  0
 35 67  1  0
 36 68  1  0
 36 69  1  0
M  END
> <Name>
Molecule

> <AbsoluteEnergy>
75.003

> <Clean Energy>
200.853

> <ConfNumber>
66

> <MOL_NUMBER>
4

> <RelativeEnergy>
13.4804

> <POSE_NUMBER>
13

> <LibDockScore>
131.9419

> <HotSpots>
0.87,-24.32,52.78,A,63,3
-4.93,-21.52,45.19,A,11,16
-8.73,-28.12,54.38,A,70,32

$$$$
Molecule
  SciTegic05072616053D

 69 73  0  0  0  0            999 V2000
    1.1730  -23.2050   48.0524 C   0  0  0  1  0  0
    0.7062  -24.5526   48.6426 C   0  0  0  1  0  0
    1.4838  -25.7202   48.0033 C   0  0  0  1  0  0
    0.7987  -24.5742   50.1542 C   0  0  0  1  0  0
    2.0986  -24.5302   50.7091 C   0  0  0  1  0  0
    2.3032  -24.5504   52.0936 C   0  0  0  1  0  0
    1.2039  -24.6021   52.9528 C   0  0  0  1  0  0
   -0.0900  -24.6279   52.4260 C   0  0  0  1  0  0
   -0.3390  -24.6373   51.0285 C   0  0  0  1  0  0
   -1.7881  -24.7301   50.5189 C   0  0  0  1  0  0
   -2.1142  -23.6682   49.4488 C   0  0  0  1  0  0
   -1.4345  -22.6720   49.3420 O   0  0  0  1  0  0
   -3.2133  -23.8754   48.6207 N   0  0  0  1  0  0
   -3.6233  -23.1411   47.5165 C   0  0  0  1  0  0
   -2.8570  -22.1070   46.9314 C   0  0  0  1  0  0
   -3.3602  -21.4104   45.8167 C   0  0  0  1  0  0
   -4.5696  -21.7164   45.2702 N   0  0  0  1  0  0
   -5.3207  -22.7166   45.8100 C   0  0  0  1  0  0
   -4.8758  -23.4426   46.9311 C   0  0  0  1  0  0
   -2.0093  -26.1909   49.9544 C   0  0  0  1  0  0
   -2.3010  -27.2630   51.0163 C   0  0  0  1  0  0
   -3.4233  -26.7822   51.8385 N   0  0  0  1  0  0
   -4.6719  -27.3540   51.8373 C   0  0  0  1  0  0
   -5.7942  -26.5427   52.1003 C   0  0  0  1  0  0
   -7.0574  -27.1239   52.2672 C   0  0  0  1  0  0
   -7.2037  -28.5203   52.1623 C   0  0  0  1  0  0
   -8.5090  -29.1952   52.5144 C   0  0  0  1  0  0
   -8.8679  -29.0300   53.9981 C   0  0  0  1  0  0
   -8.3723  -28.1193   54.6302 O   0  0  0  1  0  0
   -9.7128  -29.8937   54.5676 O   0  0  0  1  0  0
   -8.8498  -30.5019   51.8187 C   0  0  0  1  0  0
   -9.6321  -29.2527   51.4899 C   0  0  0  1  0  0
   -6.1106  -29.3091   51.7559 C   0  0  0  1  0  0
   -4.8429  -28.7304   51.5973 C   0  0  0  1  0  0
   -3.1408  -25.5723   52.6258 C   0  0  0  1  0  0
   -2.8475  -24.4189   51.6531 C   0  0  0  1  0  0
    1.0023  -23.2095   46.9759 H   0  0
    2.2386  -23.0815   48.2459 H   0  0
    0.6181  -22.3861   48.5101 H   0  0
   -0.3489  -24.6760   48.3983 H   0  0
    2.5482  -25.5875   48.1970 H   0  0
    1.3119  -25.7155   46.9269 H   0  0
    1.1476  -26.6670   48.4260 H   0  0
    2.9605  -24.4794   50.0438 H   0  0
    3.3149  -24.5259   52.4986 H   0  0
    1.3547  -24.6223   54.0321 H   0  0
   -0.9372  -24.6413   53.1116 H   0  0
   -3.8265  -24.7163   48.8694 H   0  0
   -1.8804  -21.8503   47.3419 H   0  0
   -2.7676  -20.6065   45.3802 H   0  0
   -6.2855  -22.9596   45.3649 H   0  0
   -5.4957  -24.2364   47.3479 H   0  0
   -1.1221  -26.4886   49.3956 H   0  0
   -2.8373  -26.1699   49.2458 H   0  0
   -1.4218  -27.4089   51.6439 H   0  0
   -2.5767  -28.1980   50.5285 H   0  0
   -5.6787  -25.4613   52.1739 H   0  0
   -7.9242  -26.4974   52.4776 H   0  0
   -9.2842  -30.8383   54.4047 H   0  0
   -9.4129  -31.1685   52.4719 H   0  0
   -8.1265  -30.7403   51.0389 H   0  0
   -9.3250  -28.8256   50.5352 H   0  0
  -10.6108  -29.2530   51.9697 H   0  0
   -6.2500  -30.3730   51.5639 H   0  0
   -3.9952  -29.3428   51.2900 H   0  0
   -4.0076  -25.3226   53.2377 H   0  0
   -2.2726  -25.7427   53.2624 H   0  0
   -2.4986  -23.5618   52.2291 H   0  0
   -3.7836  -24.1178   51.1828 H   0  0
  1  2  1  0
  2  3  1  0
  2  4  1  0
  4  5  2  0
  4  9  1  0
  5  6  1  0
  6  7  2  0
  7  8  1  0
  8  9  2  0
  9 10  1  0
 10 11  1  0
 10 20  1  0
 10 36  1  0
 11 12  2  0
 11 13  1  0
 13 14  1  0
 14 15  2  0
 14 19  1  0
 15 16  1  0
 16 17  2  0
 17 18  1  0
 18 19  2  0
 20 21  1  0
 21 22  1  0
 22 23  1  0
 22 35  1  0
 23 24  2  0
 23 34  1  0
 24 25  1  0
 25 26  2  0
 26 27  1  0
 26 33  1  0
 27 28  1  0
 27 31  1  0
 27 32  1  0
 28 29  2  0
 28 30  1  0
 31 32  1  0
 33 34  2  0
 35 36  1  0
  1 37  1  0
  1 38  1  0
  1 39  1  0
  2 40  1  0
  3 41  1  0
  3 42  1  0
  3 43  1  0
  5 44  1  0
  6 45  1  0
  7 46  1  0
  8 47  1  0
 13 48  1  0
 15 49  1  0
 16 50  1  0
 18 51  1  0
 19 52  1  0
 20 53  1  0
 20 54  1  0
 21 55  1  0
 21 56  1  0
 24 57  1  0
 25 58  1  0
 30 59  1  0
 31 60  1  0
 31 61  1  0
 32 62  1  0
 32 63  1  0
 33 64  1  0
 34 65  1  0
 35 66  1  0
 35 67  1  0
 36 68  1  0
 36 69  1  0
M  END
> <Name>
Molecule

> <AbsoluteEnergy>
73.5279

> <Clean Energy>
200.853

> <ConfNumber>
54

> <MOL_NUMBER>
4

> <RelativeEnergy>
12.0054

> <POSE_NUMBER>
14

> <LibDockScore>
131.7931

> <HotSpots>
2.27,-24.92,52.19,A,58,5
-2.53,-22.32,48.19,A,29,15
-9.33,-29.92,51.19,A,52,32

$$$$
Molecule
  SciTegic05072616053D

 69 73  0  0  0  0            999 V2000
    1.2519  -26.1177   46.6139 C   0  0  0  1  0  0
    0.4015  -25.0071   47.2608 C   0  0  0  1  0  0
    0.2011  -23.8199   46.3002 C   0  0  0  1  0  0
    0.9684  -24.5645   48.5905 C   0  0  0  1  0  0
    2.3082  -24.1157   48.6010 C   0  0  0  1  0  0
    2.9241  -23.6937   49.7854 C   0  0  0  1  0  0
    2.2058  -23.7151   50.9843 C   0  0  0  1  0  0
    0.8745  -24.1510   50.9949 C   0  0  0  1  0  0
    0.2208  -24.5801   49.8113 C   0  0  0  1  0  0
   -1.2425  -25.0394   49.8708 C   0  0  0  1  0  0
   -2.0465  -24.5470   48.6538 C   0  0  0  1  0  0
   -2.7046  -25.3489   48.0280 O   0  0  0  1  0  0
   -2.0248  -23.2102   48.2739 N   0  0  0  1  0  0
   -2.8204  -22.6312   47.2946 C   0  0  0  1  0  0
   -2.3720  -21.4743   46.6175 C   0  0  0  1  0  0
   -3.1767  -20.8900   45.6204 C   0  0  0  1  0  0
   -4.3894  -21.4145   45.2869 N   0  0  0  1  0  0
   -4.8465  -22.5237   45.9350 C   0  0  0  1  0  0
   -4.0917  -23.1466   46.9458 C   0  0  0  1  0  0
   -1.3012  -26.6077   50.0181 C   0  0  0  1  0  0
   -2.1933  -27.1745   51.1511 C   0  0  0  1  0  0
   -3.5002  -26.4641   51.2928 N   0  0  0  1  0  0
   -4.6927  -27.1331   51.5700 C   0  0  0  1  0  0
   -5.9037  -26.4142   51.6985 C   0  0  0  1  0  0
   -7.0969  -27.0683   52.0452 C   0  0  0  1  0  0
   -7.1082  -28.4603   52.2605 C   0  0  0  1  0  0
   -8.3746  -29.1764   52.6935 C   0  0  0  1  0  0
   -8.8428  -28.7903   54.1069 C   0  0  0  1  0  0
   -8.8814  -27.6179   54.4093 O   0  0  0  1  0  0
   -9.1998  -29.7322   54.9908 O   0  0  0  1  0  0
   -8.5522  -30.6154   52.2300 C   0  0  0  1  0  0
   -9.4249  -29.5287   51.6494 C   0  0  0  1  0  0
   -5.9213  -29.1932   52.0835 C   0  0  0  1  0  0
   -4.7249  -28.5379   51.7455 C   0  0  0  1  0  0
   -3.4706  -24.9787   51.1669 C   0  0  0  1  0  0
   -2.0304  -24.4440   51.0795 C   0  0  0  1  0  0
    2.2216  -25.7005   46.3424 H   0  0
    0.7480  -26.4607   45.7103 H   0  0
    1.3829  -26.9483   47.3075 H   0  0
   -0.5823  -25.4306   47.4631 H   0  0
   -0.2947  -24.1807   45.3990 H   0  0
    1.1789  -23.4205   46.0311 H   0  0
   -0.4018  -23.0454   46.7743 H   0  0
    2.8731  -24.0977   47.6690 H   0  0
    3.9585  -23.3502   49.7726 H   0  0
    2.6813  -23.3927   51.9106 H   0  0
    0.3266  -24.1607   51.9372 H   0  0
   -1.3334  -22.5704   48.7814 H   0  0
   -1.4058  -21.0355   46.8665 H   0  0
   -2.8216  -19.9983   45.1038 H   0  0
   -5.8181  -22.9369   45.6640 H   0  0
   -4.4850  -24.0240   47.4591 H   0  0
   -0.2867  -26.9783   50.1646 H   0  0
   -1.6413  -27.0292   49.0722 H   0  0
   -1.6528  -27.1071   52.0952 H   0  0
   -2.3861  -28.2293   50.9552 H   0  0
   -5.9110  -25.3379   51.5261 H   0  0
   -8.0189  -26.4961   52.1482 H   0  0
   -8.3627  -30.3634   55.0487 H   0  0
   -9.0887  -31.2103   52.9691 H   0  0
   -7.7644  -30.9119   51.5375 H   0  0
   -9.1027  -29.2466   50.6470 H   0  0
  -10.4263  -29.5438   52.0797 H   0  0
   -5.9292  -30.2759   52.2092 H   0  0
   -3.8110  -29.1178   51.6169 H   0  0
   -3.9642  -24.5358   52.0319 H   0  0
   -4.0160  -24.6850   50.2700 H   0  0
   -2.0605  -23.3584   50.9858 H   0  0
   -1.5046  -24.6889   52.0023 H   0  0
  1  2  1  0
  2  3  1  0
  2  4  1  0
  4  5  2  0
  4  9  1  0
  5  6  1  0
  6  7  2  0
  7  8  1  0
  8  9  2  0
  9 10  1  0
 10 11  1  0
 10 20  1  0
 10 36  1  0
 11 12  2  0
 11 13  1  0
 13 14  1  0
 14 15  2  0
 14 19  1  0
 15 16  1  0
 16 17  2  0
 17 18  1  0
 18 19  2  0
 20 21  1  0
 21 22  1  0
 22 23  1  0
 22 35  1  0
 23 24  2  0
 23 34  1  0
 24 25  1  0
 25 26  2  0
 26 27  1  0
 26 33  1  0
 27 28  1  0
 27 31  1  0
 27 32  1  0
 28 29  2  0
 28 30  1  0
 31 32  1  0
 33 34  2  0
 35 36  1  0
  1 37  1  0
  1 38  1  0
  1 39  1  0
  2 40  1  0
  3 41  1  0
  3 42  1  0
  3 43  1  0
  5 44  1  0
  6 45  1  0
  7 46  1  0
  8 47  1  0
 13 48  1  0
 15 49  1  0
 16 50  1  0
 18 51  1  0
 19 52  1  0
 20 53  1  0
 20 54  1  0
 21 55  1  0
 21 56  1  0
 24 57  1  0
 25 58  1  0
 30 59  1  0
 31 60  1  0
 31 61  1  0
 32 62  1  0
 32 63  1  0
 33 64  1  0
 34 65  1  0
 35 66  1  0
 35 67  1  0
 36 68  1  0
 36 69  1  0
M  END
> <Name>
Molecule

> <AbsoluteEnergy>
66.6999

> <Clean Energy>
200.853

> <ConfNumber>
15

> <MOL_NUMBER>
4

> <RelativeEnergy>
5.17739

> <POSE_NUMBER>
15

> <LibDockScore>
131.6516

> <HotSpots>
-5.13,-22.92,46.19,A,18,18
-6.33,-26.32,51.98,A,57,24
-9.53,-30.12,52.78,A,62,31

$$$$
Molecule
  SciTegic05072616053D

 69 73  0  0  0  0            999 V2000
   -0.5943  -25.8768   48.0706 C   0  0  0  1  0  0
   -0.6418  -24.7141   49.0868 C   0  0  0  1  0  0
   -0.3672  -23.3673   48.3907 C   0  0  0  1  0  0
    0.2947  -24.9315   50.2563 C   0  0  0  1  0  0
    1.6709  -25.0134   49.9538 C   0  0  0  1  0  0
    2.6317  -25.1221   50.9640 C   0  0  0  1  0  0
    2.2314  -25.1086   52.3032 C   0  0  0  1  0  0
    0.8722  -25.0425   52.6255 C   0  0  0  1  0  0
   -0.1287  -25.0570   51.6216 C   0  0  0  1  0  0
   -1.5993  -25.2486   52.0161 C   0  0  0  1  0  0
   -2.5005  -24.0936   51.5372 C   0  0  0  1  0  0
   -2.0110  -23.0820   51.0851 O   0  0  0  1  0  0
   -3.8808  -24.2448   51.6266 N   0  0  0  1  0  0
   -4.8977  -23.4858   51.0505 C   0  0  0  1  0  0
   -6.2293  -23.9289   51.2196 C   0  0  0  1  0  0
   -7.2973  -23.2037   50.6604 C   0  0  0  1  0  0
   -7.0828  -22.0645   49.9437 N   0  0  0  1  0  0
   -5.8088  -21.6109   49.7677 C   0  0  0  1  0  0
   -4.6995  -22.2959   50.3052 C   0  0  0  1  0  0
   -1.8276  -25.3503   53.5796 C   0  0  0  1  0  0
   -1.3005  -26.6330   54.2819 C   0  0  0  1  0  0
   -1.7010  -27.8114   53.4949 N   0  0  0  1  0  0
   -2.4870  -28.8175   53.9883 C   0  0  0  1  0  0
   -3.2914  -29.5153   53.0684 C   0  0  0  1  0  0
   -3.9853  -30.6565   53.4765 C   0  0  0  1  0  0
   -3.8682  -31.1049   54.8039 C   0  0  0  1  0  0
   -4.4457  -32.4364   55.1906 C   0  0  0  1  0  0
   -3.6166  -33.5549   54.5696 C   0  0  0  1  0  0
   -2.7834  -34.1196   55.2430 O   0  0  0  1  0  0
   -3.8107  -33.8775   53.2859 O   0  0  0  1  0  0
   -5.0961  -32.6092   56.5525 C   0  0  0  1  0  0
   -5.9492  -32.6213   55.3049 C   0  0  0  1  0  0
   -3.1740  -30.3321   55.7547 C   0  0  0  1  0  0
   -2.4780  -29.1810   55.3509 C   0  0  0  1  0  0
   -1.3263  -27.8142   52.0699 C   0  0  0  1  0  0
   -2.0378  -26.6294   51.4070 C   0  0  0  1  0  0
    0.3919  -25.9011   47.6069 H   0  0
   -1.3467  -25.7047   47.3010 H   0  0
   -0.7899  -26.8232   48.5748 H   0  0
   -1.6510  -24.6872   49.4979 H   0  0
   -1.1208  -23.2078   47.6195 H   0  0
    0.6178  -23.4042   47.9254 H   0  0
   -0.4034  -22.5557   49.1174 H   0  0
    1.9911  -24.9915   48.9121 H   0  0
    3.6871  -25.2168   50.7085 H   0  0
    2.9784  -25.1496   53.0960 H   0  0
    0.5756  -24.9784   53.6724 H   0  0
   -4.2107  -25.0665   52.2274 H   0  0
   -6.4299  -24.8379   51.7867 H   0  0
   -8.3174  -23.5603   50.8033 H   0  0
   -5.6439  -20.6966   49.1977 H   0  0
   -3.6917  -21.9114   50.1480 H   0  0
   -1.3625  -24.4853   54.0525 H   0  0
   -2.8959  -25.2656   53.7789 H   0  0
   -0.2133  -26.5917   54.3477 H   0  0
   -1.7260  -26.7025   55.2830 H   0  0
   -3.3728  -29.1657   52.0392 H   0  0
   -4.6146  -31.1969   52.7694 H   0  0
   -3.6612  -32.9835   52.7559 H   0  0
   -5.1735  -31.6601   57.0828 H   0  0
   -4.9429  -33.6148   56.9443 H   0  0
   -6.2502  -33.6333   55.0339 H   0  0
   -6.4795  -31.6784   55.1715 H   0  0
   -3.1768  -30.6273   56.8040 H   0  0
   -1.9384  -28.5770   56.0804 H   0  0
   -1.6506  -28.7447   51.6040 H   0  0
   -0.2471  -27.6962   51.9720 H   0  0
   -1.8170  -26.6352   50.3396 H   0  0
   -3.1143  -26.7476   51.5308 H   0  0
  1  2  1  0
  2  3  1  0
  2  4  1  0
  4  5  2  0
  4  9  1  0
  5  6  1  0
  6  7  2  0
  7  8  1  0
  8  9  2  0
  9 10  1  0
 10 11  1  0
 10 20  1  0
 10 36  1  0
 11 12  2  0
 11 13  1  0
 13 14  1  0
 14 15  2  0
 14 19  1  0
 15 16  1  0
 16 17  2  0
 17 18  1  0
 18 19  2  0
 20 21  1  0
 21 22  1  0
 22 23  1  0
 22 35  1  0
 23 24  2  0
 23 34  1  0
 24 25  1  0
 25 26  2  0
 26 27  1  0
 26 33  1  0
 27 28  1  0
 27 31  1  0
 27 32  1  0
 28 29  2  0
 28 30  1  0
 31 32  1  0
 33 34  2  0
 35 36  1  0
  1 37  1  0
  1 38  1  0
  1 39  1  0
  2 40  1  0
  3 41  1  0
  3 42  1  0
  3 43  1  0
  5 44  1  0
  6 45  1  0
  7 46  1  0
  8 47  1  0
 13 48  1  0
 15 49  1  0
 16 50  1  0
 18 51  1  0
 19 52  1  0
 20 53  1  0
 20 54  1  0
 21 55  1  0
 21 56  1  0
 24 57  1  0
 25 58  1  0
 30 59  1  0
 31 60  1  0
 31 61  1  0
 32 62  1  0
 32 63  1  0
 33 64  1  0
 34 65  1  0
 35 66  1  0
 35 67  1  0
 36 68  1  0
 36 69  1  0
M  END
> <Name>
Molecule

> <AbsoluteEnergy>
74.836

> <Clean Energy>
200.853

> <ConfNumber>
64

> <MOL_NUMBER>
4

> <RelativeEnergy>
13.3134

> <POSE_NUMBER>
16

> <LibDockScore>
131.5529

> <HotSpots>
-0.93,-23.32,46.98,A,25,3
1.67,-24.32,50.98,A,50,7
-3.53,-33.92,53.38,P,44,29

$$$$
Molecule
  SciTegic05072616053D

 69 73  0  0  0  0            999 V2000
    0.6110  -25.6541   48.7919 C   0  0  0  1  0  0
   -0.1861  -24.4468   49.3232 C   0  0  0  1  0  0
    0.5641  -23.1319   49.0215 C   0  0  0  1  0  0
   -0.5134  -24.6089   50.7941 C   0  0  0  1  0  0
    0.5859  -24.6200   51.6834 C   0  0  0  1  0  0
    0.4122  -24.8581   53.0518 C   0  0  0  1  0  0
   -0.8669  -25.1118   53.5507 C   0  0  0  1  0  0
   -1.9708  -25.0854   52.6910 C   0  0  0  1  0  0
   -1.8453  -24.7689   51.3100 C   0  0  0  1  0  0
   -3.0982  -24.6479   50.4185 C   0  0  0  1  0  0
   -3.0390  -23.4580   49.4364 C   0  0  0  1  0  0
   -2.3300  -22.5059   49.6674 O   0  0  0  1  0  0
   -3.8487  -23.4794   48.3108 N   0  0  0  1  0  0
   -3.8354  -22.6223   47.2235 C   0  0  0  1  0  0
   -2.7618  -21.7629   46.8986 C   0  0  0  1  0  0
   -2.8730  -20.9061   45.7857 C   0  0  0  1  0  0
   -3.9918  -20.8904   45.0061 N   0  0  0  1  0  0
   -5.0301  -21.7227   45.2952 C   0  0  0  1  0  0
   -4.9759  -22.6014   46.3902 C   0  0  0  1  0  0
   -4.4417  -24.2975   51.1891 C   0  0  0  1  0  0
   -5.6157  -25.2110   50.8196 C   0  0  0  1  0  0
   -5.2575  -26.6227   51.1222 N   0  0  0  1  0  0
   -6.0915  -27.4167   51.8958 C   0  0  0  1  0  0
   -5.6038  -28.5663   52.5574 C   0  0  0  1  0  0
   -6.4035  -29.2296   53.5008 C   0  0  0  1  0  0
   -7.6962  -28.7539   53.7817 C   0  0  0  1  0  0
   -8.4684  -29.3072   54.9456 C   0  0  0  1  0  0
   -8.4470  -28.2833   56.0708 C   0  0  0  1  0  0
   -9.4300  -27.6090   56.2676 O   0  0  0  1  0  0
   -7.3346  -28.1204   56.7876 O   0  0  0  1  0  0
   -9.7040  -30.1640   54.7248 C   0  0  0  1  0  0
   -8.4432  -30.7896   55.2728 C   0  0  0  1  0  0
   -8.2468  -27.7219   53.0052 C   0  0  0  1  0  0
   -7.4501  -27.0626   52.0630 C   0  0  0  1  0  0
   -3.9381  -27.0985   50.6113 C   0  0  0  1  0  0
   -3.2619  -26.0418   49.7115 C   0  0  0  1  0  0
    1.5893  -25.6751   49.2722 H   0  0
    0.7421  -25.5491   47.7149 H   0  0
    0.0746  -26.5779   49.0089 H   0  0
   -1.1416  -24.4001   48.8009 H   0  0
    0.6954  -23.0351   47.9438 H   0  0
    1.5425  -23.1611   49.5010 H   0  0
   -0.0061  -22.2837   49.4003 H   0  0
    1.5885  -24.4396   51.2956 H   0  0
    1.2703  -24.8455   53.7238 H   0  0
   -1.0056  -25.3304   54.6095 H   0  0
   -2.9580  -25.3146   53.0924 H   0  0
   -4.5793  -24.2605   48.2783 H   0  0
   -1.8553  -21.7628   47.5039 H   0  0
   -2.0453  -20.2401   45.5421 H   0  0
   -5.9197  -21.7069   44.6655 H   0  0
   -5.8140  -23.2670   46.5967 H   0  0
   -4.7171  -23.2657   50.9706 H   0  0
   -4.2634  -24.3707   52.2619 H   0  0
   -5.8340  -25.1120   49.7563 H   0  0
   -6.4939  -24.9270   51.3995 H   0  0
   -4.6040  -28.9387   52.3344 H   0  0
   -6.0229  -30.1122   54.0149 H   0  0
   -6.5899  -27.8944   56.0827 H   0  0
   -9.8442  -30.4002   53.6700 H   0  0
  -10.4463  -30.0042   55.5068 H   0  0
   -8.5151  -30.9643   56.3463 H   0  0
   -7.9124  -31.3588   54.5097 H   0  0
   -9.2904  -27.4356   53.1359 H   0  0
   -7.8805  -26.2689   51.4524 H   0  0
   -4.0844  -28.0145   50.0389 H   0  0
   -3.2858  -27.3189   51.4563 H   0  0
   -2.2790  -26.4076   49.4144 H   0  0
   -3.8578  -25.9135   48.8079 H   0  0
  1  2  1  0
  2  3  1  0
  2  4  1  0
  4  5  2  0
  4  9  1  0
  5  6  1  0
  6  7  2  0
  7  8  1  0
  8  9  2  0
  9 10  1  0
 10 11  1  0
 10 20  1  0
 10 36  1  0
 11 12  2  0
 11 13  1  0
 13 14  1  0
 14 15  2  0
 14 19  1  0
 15 16  1  0
 16 17  2  0
 17 18  1  0
 18 19  2  0
 20 21  1  0
 21 22  1  0
 22 23  1  0
 22 35  1  0
 23 24  2  0
 23 34  1  0
 24 25  1  0
 25 26  2  0
 26 27  1  0
 26 33  1  0
 27 28  1  0
 27 31  1  0
 27 32  1  0
 28 29  2  0
 28 30  1  0
 31 32  1  0
 33 34  2  0
 35 36  1  0
  1 37  1  0
  1 38  1  0
  1 39  1  0
  2 40  1  0
  3 41  1  0
  3 42  1  0
  3 43  1  0
  5 44  1  0
  6 45  1  0
  7 46  1  0
  8 47  1  0
 13 48  1  0
 15 49  1  0
 16 50  1  0
 18 51  1  0
 19 52  1  0
 20 53  1  0
 20 54  1  0
 21 55  1  0
 21 56  1  0
 24 57  1  0
 25 58  1  0
 30 59  1  0
 31 60  1  0
 31 61  1  0
 32 62  1  0
 32 63  1  0
 33 64  1  0
 34 65  1  0
 35 66  1  0
 35 67  1  0
 36 68  1  0
 36 69  1  0
M  END
> <Name>
Molecule

> <AbsoluteEnergy>
75.6324

> <Clean Energy>
200.853

> <ConfNumber>
67

> <MOL_NUMBER>
4

> <RelativeEnergy>
14.1099

> <POSE_NUMBER>
17

> <LibDockScore>
131.2222

> <HotSpots>
-3.53,-22.32,46.59,A,20,15
-5.93,-22.12,45.59,A,14,18
-7.73,-27.92,56.98,P,70,30

$$$$
Molecule
  SciTegic05072616053D

 69 73  0  0  0  0            999 V2000
    0.6037  -25.6692   48.7062 C   0  0  0  1  0  0
   -0.1399  -24.4354   49.2542 C   0  0  0  1  0  0
    0.6583  -23.1488   48.9536 C   0  0  0  1  0  0
   -0.4580  -24.5952   50.7274 C   0  0  0  1  0  0
    0.6471  -24.6111   51.6093 C   0  0  0  1  0  0
    0.4816  -24.8476   52.9789 C   0  0  0  1  0  0
   -0.7954  -25.0950   53.4866 C   0  0  0  1  0  0
   -1.9049  -25.0637   52.6343 C   0  0  0  1  0  0
   -1.7872  -24.7486   51.2523 C   0  0  0  1  0  0
   -3.0455  -24.6221   50.3692 C   0  0  0  1  0  0
   -2.9920  -23.4264   49.3937 C   0  0  0  1  0  0
   -2.2866  -22.4729   49.6295 O   0  0  0  1  0  0
   -3.8027  -23.4447   48.2688 N   0  0  0  1  0  0
   -3.8084  -22.5687   47.1966 C   0  0  0  1  0  0
   -2.7624  -21.6668   46.8981 C   0  0  0  1  0  0
   -2.8922  -20.7950   45.7991 C   0  0  0  1  0  0
   -4.0028  -20.8047   45.0078 N   0  0  0  1  0  0
   -5.0142  -21.6777   45.2713 C   0  0  0  1  0  0
   -4.9404  -22.5730   46.3515 C   0  0  0  1  0  0
   -4.3842  -24.2760   51.1500 C   0  0  0  1  0  0
   -5.5606  -25.1871   50.7823 C   0  0  0  1  0  0
   -5.2009  -26.6006   51.0743 N   0  0  0  1  0  0
   -6.0304  -27.3990   51.8483 C   0  0  0  1  0  0
   -5.5340  -28.5400   52.5185 C   0  0  0  1  0  0
   -6.3313  -29.2064   53.4617 C   0  0  0  1  0  0
   -7.6302  -28.7425   53.7339 C   0  0  0  1  0  0
   -8.4021  -29.2975   54.8971 C   0  0  0  1  0  0
   -8.4156  -28.2584   56.0086 C   0  0  0  1  0  0
   -9.3868  -27.5516   56.1374 O   0  0  0  1  0  0
   -7.3433  -28.1194   56.7887 O   0  0  0  1  0  0
   -9.6159  -30.1846   54.6752 C   0  0  0  1  0  0
   -8.3474  -30.7744   55.2446 C   0  0  0  1  0  0
   -8.1876  -27.7205   52.9493 C   0  0  0  1  0  0
   -7.3933  -27.0580   52.0072 C   0  0  0  1  0  0
   -3.8847  -27.0736   50.5526 C   0  0  0  1  0  0
   -3.2138  -26.0118   49.6550 C   0  0  0  1  0  0
    1.5853  -25.7321   49.1760 H   0  0
    0.7278  -25.5616   47.6286 H   0  0
    0.0337  -26.5728   48.9225 H   0  0
   -1.0982  -24.3475   48.7424 H   0  0
    0.7822  -23.0494   47.8752 H   0  0
    1.6397  -23.2199   49.4226 H   0  0
    0.1258  -22.2816   49.3442 H   0  0
    1.6479  -24.4357   51.2147 H   0  0
    1.3443  -24.8387   53.6451 H   0  0
   -0.9280  -25.3124   54.5464 H   0  0
   -2.8904  -25.2879   53.0424 H   0  0
   -4.5173  -24.2398   48.2235 H   0  0
   -1.8626  -21.6458   47.5130 H   0  0
   -2.0859  -20.0963   45.5760 H   0  0
   -5.8973  -21.6819   44.6324 H   0  0
   -5.7567  -23.2710   46.5375 H   0  0
   -4.6607  -23.2429   50.9392 H   0  0
   -4.1994  -24.3555   52.2213 H   0  0
   -5.7854  -25.0818   49.7210 H   0  0
   -6.4352  -24.9064   51.3692 H   0  0
   -4.5293  -28.9033   52.3022 H   0  0
   -5.9441  -30.0822   53.9824 H   0  0
   -6.5512  -27.9266   56.1270 H   0  0
   -9.7396  -30.4379   53.6223 H   0  0
  -10.3698  -30.0310   55.4473 H   0  0
   -8.4268  -30.9364   56.3196 H   0  0
   -7.7960  -31.3417   54.4948 H   0  0
   -9.2347  -27.4443   53.0736 H   0  0
   -7.8290  -26.2721   51.3903 H   0  0
   -4.0346  -27.9862   49.9757 H   0  0
   -3.2273  -27.2991   51.3923 H   0  0
   -2.2328  -26.3760   49.3498 H   0  0
   -3.8152  -25.8780   48.7558 H   0  0
  1  2  1  0
  2  3  1  0
  2  4  1  0
  4  5  2  0
  4  9  1  0
  5  6  1  0
  6  7  2  0
  7  8  1  0
  8  9  2  0
  9 10  1  0
 10 11  1  0
 10 20  1  0
 10 36  1  0
 11 12  2  0
 11 13  1  0
 13 14  1  0
 14 15  2  0
 14 19  1  0
 15 16  1  0
 16 17  2  0
 17 18  1  0
 18 19  2  0
 20 21  1  0
 21 22  1  0
 22 23  1  0
 22 35  1  0
 23 24  2  0
 23 34  1  0
 24 25  1  0
 25 26  2  0
 26 27  1  0
 26 33  1  0
 27 28  1  0
 27 31  1  0
 27 32  1  0
 28 29  2  0
 28 30  1  0
 31 32  1  0
 33 34  2  0
 35 36  1  0
  1 37  1  0
  1 38  1  0
  1 39  1  0
  2 40  1  0
  3 41  1  0
  3 42  1  0
  3 43  1  0
  5 44  1  0
  6 45  1  0
  7 46  1  0
  8 47  1  0
 13 48  1  0
 15 49  1  0
 16 50  1  0
 18 51  1  0
 19 52  1  0
 20 53  1  0
 20 54  1  0
 21 55  1  0
 21 56  1  0
 24 57  1  0
 25 58  1  0
 30 59  1  0
 31 60  1  0
 31 61  1  0
 32 62  1  0
 32 63  1  0
 33 64  1  0
 34 65  1  0
 35 66  1  0
 35 67  1  0
 36 68  1  0
 36 69  1  0
M  END
> <Name>
Molecule

> <AbsoluteEnergy>
75.6324

> <Clean Energy>
200.853

> <ConfNumber>
67

> <MOL_NUMBER>
4

> <RelativeEnergy>
14.1099

> <POSE_NUMBER>
18

> <LibDockScore>
130.8191

> <HotSpots>
0.87,-24.32,52.78,A,63,5
-2.53,-21.12,45.98,A,16,16
-7.73,-27.92,56.98,P,70,30

$$$$
Molecule
  SciTegic05072616053D

 69 73  0  0  0  0            999 V2000
   -0.0642  -23.5475   53.2854 C   0  0  0  1  0  0
   -0.4353  -24.7267   52.3657 C   0  0  0  1  0  0
   -0.1561  -26.0793   53.0568 C   0  0  0  1  0  0
    0.2037  -24.6202   51.0072 C   0  0  0  1  0  0
    1.5971  -24.3802   51.0153 C   0  0  0  1  0  0
    2.3390  -24.3320   49.8323 C   0  0  0  1  0  0
    1.6980  -24.5285   48.6098 C   0  0  0  1  0  0
    0.3155  -24.7433   48.5759 C   0  0  0  1  0  0
   -0.4867  -24.7540   49.7524 C   0  0  0  1  0  0
   -2.0122  -24.9295   49.5461 C   0  0  0  1  0  0
   -2.4031  -24.5366   48.0981 C   0  0  0  1  0  0
   -2.8269  -25.3800   47.3379 O   0  0  0  1  0  0
   -2.2614  -23.2196   47.6731 N   0  0  0  1  0  0
   -3.0631  -22.5360   46.7641 C   0  0  0  1  0  0
   -2.5999  -21.3224   46.2072 C   0  0  0  1  0  0
   -3.3992  -20.6182   45.2854 C   0  0  0  1  0  0
   -4.6263  -21.0783   44.9119 N   0  0  0  1  0  0
   -5.0974  -22.2424   45.4387 C   0  0  0  1  0  0
   -4.3465  -22.9873   46.3696 C   0  0  0  1  0  0
   -2.3478  -26.4427   49.7368 C   0  0  0  1  0  0
   -2.6193  -26.8565   51.1837 C   0  0  0  1  0  0
   -3.8078  -26.1164   51.6669 N   0  0  0  1  0  0
   -4.9214  -26.7964   52.1203 C   0  0  0  1  0  0
   -4.8337  -28.1490   52.5163 C   0  0  0  1  0  0
   -5.9843  -28.8352   52.9388 C   0  0  0  1  0  0
   -7.2309  -28.1820   52.9600 C   0  0  0  1  0  0
   -8.4735  -28.9471   53.3548 C   0  0  0  1  0  0
   -9.1525  -29.6121   52.1582 C   0  0  0  1  0  0
   -9.6920  -30.6873   52.3025 O   0  0  0  1  0  0
   -9.1306  -28.9866   50.9767 O   0  0  0  1  0  0
   -8.4899  -29.6492   54.7061 C   0  0  0  1  0  0
   -9.3502  -28.4280   54.4841 C   0  0  0  1  0  0
   -7.3141  -26.8260   52.5919 C   0  0  0  1  0  0
   -6.1652  -26.1365   52.1768 C   0  0  0  1  0  0
   -3.7861  -24.6293   51.6101 C   0  0  0  1  0  0
   -2.9625  -24.0236   50.4350 C   0  0  0  1  0  0
    0.9943  -23.6170   53.5360 H   0  0
   -0.6521  -23.6172   54.2006 H   0  0
   -0.2665  -22.6008   52.7845 H   0  0
   -1.5092  -24.6763   52.1858 H   0  0
   -0.7434  -26.1334   53.9735 H   0  0
    0.9030  -26.1331   53.3088 H   0  0
   -0.4233  -26.9029   52.3947 H   0  0
    2.1050  -24.2291   51.9678 H   0  0
    3.4118  -24.1420   49.8649 H   0  0
    2.2719  -24.5149   47.6832 H   0  0
   -0.1657  -24.9088   47.6120 H   0  0
   -1.4442  -22.6706   48.0922 H   0  0
   -1.6231  -20.9309   46.4913 H   0  0
   -3.0281  -19.6850   44.8617 H   0  0
   -6.0783  -22.6064   45.1331 H   0  0
   -4.7526  -23.9094   46.7855 H   0  0
   -1.5186  -27.0376   49.3539 H   0  0
   -3.2229  -26.6863   49.1343 H   0  0
   -1.7578  -26.6090   51.8039 H   0  0
   -2.8133  -27.9282   51.2275 H   0  0
   -3.8719  -28.6613   52.4941 H   0  0
   -5.9115  -29.8769   53.2512 H   0  0
   -8.1140  -28.8264   50.7687 H   0  0
   -7.6000  -29.4136   55.2898 H   0  0
   -9.0772  -30.5668   54.6720 H   0  0
  -10.3963  -28.6949   54.3338 H   0  0
   -8.9188  -27.5419   54.9499 H   0  0
   -8.2737  -26.3104   52.6295 H   0  0
   -6.2349  -25.0854   51.8967 H   0  0
   -4.8126  -24.2699   51.5381 H   0  0
   -3.3829  -24.2512   52.5495 H   0  0
   -2.3597  -23.2115   50.8415 H   0  0
   -3.6638  -23.5235   49.7670 H   0  0
  1  2  1  0
  2  3  1  0
  2  4  1  0
  4  5  2  0
  4  9  1  0
  5  6  1  0
  6  7  2  0
  7  8  1  0
  8  9  2  0
  9 10  1  0
 10 11  1  0
 10 20  1  0
 10 36  1  0
 11 12  2  0
 11 13  1  0
 13 14  1  0
 14 15  2  0
 14 19  1  0
 15 16  1  0
 16 17  2  0
 17 18  1  0
 18 19  2  0
 20 21  1  0
 21 22  1  0
 22 23  1  0
 22 35  1  0
 23 24  2  0
 23 34  1  0
 24 25  1  0
 25 26  2  0
 26 27  1  0
 26 33  1  0
 27 28  1  0
 27 31  1  0
 27 32  1  0
 28 29  2  0
 28 30  1  0
 31 32  1  0
 33 34  2  0
 35 36  1  0
  1 37  1  0
  1 38  1  0
  1 39  1  0
  2 40  1  0
  3 41  1  0
  3 42  1  0
  3 43  1  0
  5 44  1  0
  6 45  1  0
  7 46  1  0
  8 47  1  0
 13 48  1  0
 15 49  1  0
 16 50  1  0
 18 51  1  0
 19 52  1  0
 20 53  1  0
 20 54  1  0
 21 55  1  0
 21 56  1  0
 24 57  1  0
 25 58  1  0
 30 59  1  0
 31 60  1  0
 31 61  1  0
 32 62  1  0
 32 63  1  0
 33 64  1  0
 34 65  1  0
 35 66  1  0
 35 67  1  0
 36 68  1  0
 36 69  1  0
M  END
> <Name>
Molecule

> <AbsoluteEnergy>
80.0889

> <Clean Energy>
200.853

> <ConfNumber>
97

> <MOL_NUMBER>
4

> <RelativeEnergy>
18.5664

> <POSE_NUMBER>
19

> <LibDockScore>
130.5285

> <HotSpots>
1.67,-24.32,50.98,A,50,5
-3.73,-20.12,45.19,P,20,17
-6.33,-26.32,51.98,A,57,34

$$$$
Molecule
  SciTegic05072616053D

 69 73  0  0  0  0            999 V2000
   -2.4886  -22.9132   47.0909 C   0  0  0  1  0  0
   -3.5580  -23.9219   47.5486 C   0  0  0  1  0  0
   -4.3015  -24.5446   46.3499 C   0  0  0  1  0  0
   -4.4976  -23.3131   48.5630 C   0  0  0  1  0  0
   -5.3085  -22.2476   48.1103 C   0  0  0  1  0  0
   -6.2253  -21.6196   48.9583 C   0  0  0  1  0  0
   -6.3452  -22.0451   50.2825 C   0  0  0  1  0  0
   -5.5435  -23.0908   50.7566 C   0  0  0  1  0  0
   -4.5987  -23.7510   49.9258 C   0  0  0  1  0  0
   -3.7338  -24.8828   50.5065 C   0  0  0  1  0  0
   -2.2520  -24.4728   50.4451 C   0  0  0  1  0  0
   -1.9028  -23.5517   51.1502 O   0  0  0  1  0  0
   -1.3375  -25.1175   49.6265 N   0  0  0  1  0  0
   -0.0140  -24.7677   49.3727 C   0  0  0  1  0  0
    0.7244  -23.8483   50.1556 C   0  0  0  1  0  0
    2.0604  -23.5559   49.8225 C   0  0  0  1  0  0
    2.6746  -24.1442   48.7586 N   0  0  0  1  0  0
    1.9875  -25.0372   47.9941 C   0  0  0  1  0  0
    0.6495  -25.3671   48.2775 C   0  0  0  1  0  0
   -3.9814  -25.1144   52.0317 C   0  0  0  1  0  0
   -3.1687  -26.2748   52.6259 C   0  0  0  1  0  0
   -3.4776  -27.5602   51.9400 N   0  0  0  1  0  0
   -3.6709  -28.7335   52.6649 C   0  0  0  1  0  0
   -4.3849  -29.8275   52.1251 C   0  0  0  1  0  0
   -4.5611  -31.0065   52.8696 C   0  0  0  1  0  0
   -4.0346  -31.1099   54.1690 C   0  0  0  1  0  0
   -4.2291  -32.3744   54.9703 C   0  0  0  1  0  0
   -4.9001  -32.1241   56.3100 C   0  0  0  1  0  0
   -4.3203  -31.4677   57.1444 O   0  0  0  1  0  0
   -6.1103  -32.6325   56.5319 O   0  0  0  1  0  0
   -3.1936  -33.4855   54.8791 C   0  0  0  1  0  0
   -4.5485  -33.6711   54.2409 C   0  0  0  1  0  0
   -3.3287  -30.0254   54.7185 C   0  0  0  1  0  0
   -3.1480  -28.8497   53.9727 C   0  0  0  1  0  0
   -3.5288  -27.5319   50.4482 C   0  0  0  1  0  0
   -4.1603  -26.2454   49.8617 C   0  0  0  1  0  0
   -2.9772  -22.1266   46.5159 H   0  0
   -1.7761  -23.4305   46.4484 H   0  0
   -1.9753  -22.4850   47.9518 H   0  0
   -3.0454  -24.7408   48.0533 H   0  0
   -3.5736  -25.0481   45.7136 H   0  0
   -4.7747  -23.7441   45.7812 H   0  0
   -5.0531  -25.2547   46.6948 H   0  0
   -5.2170  -21.9085   47.0784 H   0  0
   -6.8434  -20.8019   48.5875 H   0  0
   -7.0625  -21.5636   50.9471 H   0  0
   -5.6474  -23.4078   51.7943 H   0  0
   -1.6936  -25.9941   49.1269 H   0  0
    0.2589  -23.3671   51.0157 H   0  0
    2.6164  -22.8420   50.4302 H   0  0
    2.4844  -25.5062   47.1449 H   0  0
    0.1229  -26.0869   47.6509 H   0  0
   -3.7339  -24.2003   52.5715 H   0  0
   -5.0415  -25.3110   52.1915 H   0  0
   -2.1054  -26.0595   52.5202 H   0  0
   -3.4008  -26.3708   53.6866 H   0  0
   -4.8032  -29.7560   51.1211 H   0  0
   -5.1084  -31.8443   52.4376 H   0  0
   -6.0068  -33.6648   56.3702 H   0  0
   -3.1121  -34.0344   55.8173 H   0  0
   -2.4274  -33.2575   54.1381 H   0  0
   -4.5048  -33.5429   53.1594 H   0  0
   -5.1900  -34.3182   54.8391 H   0  0
   -2.9205  -30.0975   55.7266 H   0  0
   -2.5973  -28.0158   54.4080 H   0  0
   -4.0988  -28.3932   50.0998 H   0  0
   -2.5151  -27.6338   50.0608 H   0  0
   -3.9320  -26.2083   48.7965 H   0  0
   -5.2444  -26.3341   49.9328 H   0  0
  1  2  1  0
  2  3  1  0
  2  4  1  0
  4  5  2  0
  4  9  1  0
  5  6  1  0
  6  7  2  0
  7  8  1  0
  8  9  2  0
  9 10  1  0
 10 11  1  0
 10 20  1  0
 10 36  1  0
 11 12  2  0
 11 13  1  0
 13 14  1  0
 14 15  2  0
 14 19  1  0
 15 16  1  0
 16 17  2  0
 17 18  1  0
 18 19  2  0
 20 21  1  0
 21 22  1  0
 22 23  1  0
 22 35  1  0
 23 24  2  0
 23 34  1  0
 24 25  1  0
 25 26  2  0
 26 27  1  0
 26 33  1  0
 27 28  1  0
 27 31  1  0
 27 32  1  0
 28 29  2  0
 28 30  1  0
 31 32  1  0
 33 34  2  0
 35 36  1  0
  1 37  1  0
  1 38  1  0
  1 39  1  0
  2 40  1  0
  3 41  1  0
  3 42  1  0
  3 43  1  0
  5 44  1  0
  6 45  1  0
  7 46  1  0
  8 47  1  0
 13 48  1  0
 15 49  1  0
 16 50  1  0
 18 51  1  0
 19 52  1  0
 20 53  1  0
 20 54  1  0
 21 55  1  0
 21 56  1  0
 24 57  1  0
 25 58  1  0
 30 59  1  0
 31 60  1  0
 31 61  1  0
 32 62  1  0
 32 63  1  0
 33 64  1  0
 34 65  1  0
 35 66  1  0
 35 67  1  0
 36 68  1  0
 36 69  1  0
M  END
> <Name>
Molecule

> <AbsoluteEnergy>
65.117

> <Clean Energy>
200.853

> <ConfNumber>
9

> <MOL_NUMBER>
4

> <RelativeEnergy>
3.59449

> <POSE_NUMBER>
20

> <LibDockScore>
130.366

> <HotSpots>
-4.73,-22.32,50.38,A,46,8
2.67,-23.92,48.98,A,32,16
-4.13,-30.52,57.38,P,71,29

$$$$
Molecule
  SciTegic05072616053D

 69 73  0  0  0  0            999 V2000
   -0.1330  -23.5347   53.3283 C   0  0  0  1  0  0
   -0.4370  -24.7266   52.4005 C   0  0  0  1  0  0
   -0.1070  -26.0674   53.0924 C   0  0  0  1  0  0
    0.2162  -24.5873   51.0518 C   0  0  0  1  0  0
    1.6061  -24.3296   51.0806 C   0  0  0  1  0  0
    2.3610  -24.2504   49.9074 C   0  0  0  1  0  0
    1.7367  -24.4328   48.6741 C   0  0  0  1  0  0
    0.3576  -24.6646   48.6202 C   0  0  0  1  0  0
   -0.4579  -24.7069   49.7867 C   0  0  0  1  0  0
   -1.9785  -24.8981   49.5594 C   0  0  0  1  0  0
   -2.3537  -24.5073   48.1066 C   0  0  0  1  0  0
   -2.7561  -25.3544   47.3390 O   0  0  0  1  0  0
   -2.2225  -23.1878   47.6861 N   0  0  0  1  0  0
   -3.0166  -22.5140   46.7633 C   0  0  0  1  0  0
   -2.5591  -21.2942   46.2152 C   0  0  0  1  0  0
   -3.3509  -20.5997   45.2796 C   0  0  0  1  0  0
   -4.5652  -21.0752   44.8842 N   0  0  0  1  0  0
   -5.0306  -22.2455   45.4021 C   0  0  0  1  0  0
   -4.2869  -22.9814   46.3459 C   0  0  0  1  0  0
   -2.3008  -26.4151   49.7435 C   0  0  0  1  0  0
   -2.5877  -26.8337   51.1860 C   0  0  0  1  0  0
   -3.7903  -26.1069   51.6538 N   0  0  0  1  0  0
   -4.9029  -26.7991   52.0911 C   0  0  0  1  0  0
   -4.8154  -28.1636   52.4442 C   0  0  0  1  0  0
   -5.9650  -28.8610   52.8505 C   0  0  0  1  0  0
   -7.2105  -28.2071   52.8981 C   0  0  0  1  0  0
   -8.4524  -28.9824   53.2748 C   0  0  0  1  0  0
   -9.1292  -29.6219   52.0632 C   0  0  0  1  0  0
   -9.4705  -30.7832   52.1168 O   0  0  0  1  0  0
   -9.3255  -28.8786   50.9692 O   0  0  0  1  0  0
   -8.4691  -29.7140   54.6103 C   0  0  0  1  0  0
   -9.3310  -28.4895   54.4143 C   0  0  0  1  0  0
   -7.2934  -26.8401   52.5730 C   0  0  0  1  0  0
   -6.1454  -26.1396   52.1741 C   0  0  0  1  0  0
   -3.7835  -24.6196   51.5992 C   0  0  0  1  0  0
   -2.9503  -24.0035   50.4363 C   0  0  0  1  0  0
    0.9238  -23.5571   53.5942 H   0  0
   -0.7303  -23.6337   54.2347 H   0  0
   -0.3706  -22.5965   52.8268 H   0  0
   -1.5093  -24.7241   52.2050 H   0  0
   -0.7045  -26.1507   54.0002 H   0  0
    0.9497  -26.0741   53.3598 H   0  0
   -0.3270  -26.9002   52.4245 H   0  0
    2.1009  -24.1893   52.0416 H   0  0
    3.4308  -24.0474   49.9561 H   0  0
    2.3210  -24.3950   47.7547 H   0  0
   -0.1103  -24.8187   47.6479 H   0  0
   -1.4210  -22.6282   48.1211 H   0  0
   -1.5926  -20.8904   46.5167 H   0  0
   -2.9843  -19.6616   44.8629 H   0  0
   -6.0012  -22.6218   45.0790 H   0  0
   -4.6885  -23.9089   46.7541 H   0  0
   -1.4602  -27.0007   49.3713 H   0  0
   -3.1650  -26.6670   49.1288 H   0  0
   -1.7374  -26.5780   51.8182 H   0  0
   -2.7710  -27.9074   51.2258 H   0  0
   -3.8545  -28.6763   52.4014 H   0  0
   -5.8923  -29.9121   53.1299 H   0  0
   -8.3738  -28.5241   50.7027 H   0  0
   -7.5802  -29.4900   55.2000 H   0  0
   -9.0550  -30.6315   54.5555 H   0  0
  -10.3765  -28.7546   54.2571 H   0  0
   -8.9014  -27.6133   54.8999 H   0  0
   -8.2520  -26.3246   52.6314 H   0  0
   -6.2148  -25.0802   51.9272 H   0  0
   -4.8127  -24.2709   51.5136 H   0  0
   -3.3972  -24.2386   52.5446 H   0  0
   -2.3617  -23.1857   50.8521 H   0  0
   -3.6476  -23.5098   49.7594 H   0  0
  1  2  1  0
  2  3  1  0
  2  4  1  0
  4  5  2  0
  4  9  1  0
  5  6  1  0
  6  7  2  0
  7  8  1  0
  8  9  2  0
  9 10  1  0
 10 11  1  0
 10 20  1  0
 10 36  1  0
 11 12  2  0
 11 13  1  0
 13 14  1  0
 14 15  2  0
 14 19  1  0
 15 16  1  0
 16 17  2  0
 17 18  1  0
 18 19  2  0
 20 21  1  0
 21 22  1  0
 22 23  1  0
 22 35  1  0
 23 24  2  0
 23 34  1  0
 24 25  1  0
 25 26  2  0
 26 27  1  0
 26 33  1  0
 27 28  1  0
 27 31  1  0
 27 32  1  0
 28 29  2  0
 28 30  1  0
 31 32  1  0
 33 34  2  0
 35 36  1  0
  1 37  1  0
  1 38  1  0
  1 39  1  0
  2 40  1  0
  3 41  1  0
  3 42  1  0
  3 43  1  0
  5 44  1  0
  6 45  1  0
  7 46  1  0
  8 47  1  0
 13 48  1  0
 15 49  1  0
 16 50  1  0
 18 51  1  0
 19 52  1  0
 20 53  1  0
 20 54  1  0
 21 55  1  0
 21 56  1  0
 24 57  1  0
 25 58  1  0
 30 59  1  0
 31 60  1  0
 31 61  1  0
 32 62  1  0
 32 63  1  0
 33 64  1  0
 34 65  1  0
 35 66  1  0
 35 67  1  0
 36 68  1  0
 36 69  1  0
M  END
> <Name>
Molecule

> <AbsoluteEnergy>
80.0889

> <Clean Energy>
200.853

> <ConfNumber>
97

> <MOL_NUMBER>
4

> <RelativeEnergy>
18.5664

> <POSE_NUMBER>
21

> <LibDockScore>
130.342

> <HotSpots>
-2.53,-21.12,45.98,A,16,15
-3.53,-20.52,45.19,A,12,16
-6.33,-26.32,51.98,A,57,34

$$$$
Molecule
  SciTegic05072616053D

 69 73  0  0  0  0            999 V2000
   -0.3046  -23.3054   47.1383 C   0  0  0  1  0  0
    0.0528  -24.6510   47.7951 C   0  0  0  1  0  0
    0.7033  -25.6196   46.7900 C   0  0  0  1  0  0
    0.8949  -24.4651   49.0370 C   0  0  0  1  0  0
    2.2207  -24.0136   48.8501 C   0  0  0  1  0  0
    3.0811  -23.8187   49.9362 C   0  0  0  1  0  0
    2.6275  -24.0702   51.2333 C   0  0  0  1  0  0
    1.3151  -24.5131   51.4422 C   0  0  0  1  0  0
    0.4168  -24.7165   50.3638 C   0  0  0  1  0  0
   -1.0157  -25.1912   50.6417 C   0  0  0  1  0  0
   -2.0009  -24.3346   49.8245 C   0  0  0  1  0  0
   -1.9944  -23.1337   49.9951 O   0  0  0  1  0  0
   -2.8757  -24.8956   48.9066 N   0  0  0  1  0  0
   -3.4560  -24.1949   47.8671 C   0  0  0  1  0  0
   -4.2556  -24.8599   46.9152 C   0  0  0  1  0  0
   -4.8364  -24.1249   45.8632 C   0  0  0  1  0  0
   -4.6510  -22.7785   45.7512 N   0  0  0  1  0  0
   -3.8840  -22.1213   46.6663 C   0  0  0  1  0  0
   -3.2730  -22.8034   47.7350 C   0  0  0  1  0  0
   -1.0960  -26.7496   50.4231 C   0  0  0  1  0  0
   -1.9771  -27.5458   51.4208 C   0  0  0  1  0  0
   -3.1596  -26.7783   51.9042 N   0  0  0  1  0  0
   -4.4300  -27.3326   51.9458 C   0  0  0  1  0  0
   -4.6113  -28.7234   51.7771 C   0  0  0  1  0  0
   -5.8901  -29.2935   51.8920 C   0  0  0  1  0  0
   -7.0046  -28.4825   52.1735 C   0  0  0  1  0  0
   -8.3690  -29.1028   52.3854 C   0  0  0  1  0  0
   -8.9111  -28.8579   53.7948 C   0  0  0  1  0  0
   -9.3990  -29.7759   54.4166 O   0  0  0  1  0  0
   -8.8307  -27.6270   54.3086 O   0  0  0  1  0  0
   -8.7041  -30.4098   51.6808 C   0  0  0  1  0  0
   -9.3591  -29.1255   51.2308 C   0  0  0  1  0  0
   -6.8382  -27.0886   52.2818 C   0  0  0  1  0  0
   -5.5612  -26.5181   52.1707 C   0  0  0  1  0  0
   -2.9217  -25.3862   52.3765 C   0  0  0  1  0  0
   -1.4737  -24.9361   52.1120 C   0  0  0  1  0  0
   -0.9935  -23.4939   46.3149 H   0  0
    0.6078  -22.8606   46.7410 H   0  0
   -0.7631  -22.6355   47.8657 H   0  0
   -0.8812  -25.1111   48.1175 H   0  0
    1.6069  -25.1546   46.3958 H   0  0
    0.0055  -25.7878   45.9697 H   0  0
    0.9481  -26.5648   47.2746 H   0  0
    2.5800  -23.8133   47.8407 H   0  0
    4.1012  -23.4720   49.7708 H   0  0
    3.2945  -23.9219   52.0825 H   0  0
    0.9756  -24.7064   52.4598 H   0  0
   -3.1156  -25.9333   49.0096 H   0  0
   -4.4230  -25.9342   46.9927 H   0  0
   -5.4466  -24.6430   45.1234 H   0  0
   -3.7409  -21.0452   46.5684 H   0  0
   -2.6624  -22.2594   48.4557 H   0  0
   -0.0853  -27.1562   50.4584 H   0  0
   -1.4642  -26.9378   49.4146 H   0  0
   -1.3701  -27.8343   52.2789 H   0  0
   -2.3238  -28.4588   50.9367 H   0  0
   -3.7533  -29.3584   51.5563 H   0  0
   -6.0193  -30.3681   51.7626 H   0  0
   -9.3272  -27.0081   53.6209 H   0  0
   -9.3837  -31.0214   52.2744 H   0  0
   -7.9066  -30.7138   51.0028 H   0  0
   -8.9114  -28.7462   50.3122 H   0  0
  -10.3874  -29.0529   51.5848 H   0  0
   -7.7050  -26.4501   52.4526 H   0  0
   -5.4415  -25.4383   52.2586 H   0  0
   -3.1232  -25.3312   53.4463 H   0  0
   -3.6055  -24.7120   51.8609 H   0  0
   -1.3888  -23.8718   52.3314 H   0  0
   -0.8078  -25.4713   52.7889 H   0  0
  1  2  1  0
  2  3  1  0
  2  4  1  0
  4  5  2  0
  4  9  1  0
  5  6  1  0
  6  7  2  0
  7  8  1  0
  8  9  2  0
  9 10  1  0
 10 11  1  0
 10 20  1  0
 10 36  1  0
 11 12  2  0
 11 13  1  0
 13 14  1  0
 14 15  2  0
 14 19  1  0
 15 16  1  0
 16 17  2  0
 17 18  1  0
 18 19  2  0
 20 21  1  0
 21 22  1  0
 22 23  1  0
 22 35  1  0
 23 24  2  0
 23 34  1  0
 24 25  1  0
 25 26  2  0
 26 27  1  0
 26 33  1  0
 27 28  1  0
 27 31  1  0
 27 32  1  0
 28 29  2  0
 28 30  1  0
 31 32  1  0
 33 34  2  0
 35 36  1  0
  1 37  1  0
  1 38  1  0
  1 39  1  0
  2 40  1  0
  3 41  1  0
  3 42  1  0
  3 43  1  0
  5 44  1  0
  6 45  1  0
  7 46  1  0
  8 47  1  0
 13 48  1  0
 15 49  1  0
 16 50  1  0
 18 51  1  0
 19 52  1  0
 20 53  1  0
 20 54  1  0
 21 55  1  0
 21 56  1  0
 24 57  1  0
 25 58  1  0
 30 59  1  0
 31 60  1  0
 31 61  1  0
 32 62  1  0
 32 63  1  0
 33 64  1  0
 34 65  1  0
 35 66  1  0
 35 67  1  0
 36 68  1  0
 36 69  1  0
M  END
> <Name>
Molecule

> <AbsoluteEnergy>
70.8074

> <Clean Energy>
200.853

> <ConfNumber>
41

> <MOL_NUMBER>
4

> <RelativeEnergy>
9.28485

> <POSE_NUMBER>
22

> <LibDockScore>
129.8209

> <HotSpots>
2.67,-23.92,48.98,A,32,5
-4.53,-24.52,46.19,A,17,16
-6.33,-26.32,51.98,A,57,33

$$$$
Molecule
  SciTegic05072616053D

 69 73  0  0  0  0            999 V2000
    0.6583  -22.9584   46.8574 C   0  0  0  1  0  0
    0.7746  -24.3789   47.4477 C   0  0  0  1  0  0
    1.5184  -25.3123   46.4720 C   0  0  0  1  0  0
    1.4038  -24.3770   48.8251 C   0  0  0  1  0  0
    2.8050  -24.1947   48.8771 C   0  0  0  1  0  0
    3.5014  -24.2419   50.0910 C   0  0  0  1  0  0
    2.8037  -24.4829   51.2773 C   0  0  0  1  0  0
    1.4119  -24.6331   51.2531 C   0  0  0  1  0  0
    0.6702  -24.5551   50.0479 C   0  0  0  1  0  0
   -0.8612  -24.6832   50.1024 C   0  0  0  1  0  0
   -1.5318  -23.5480   49.2967 C   0  0  0  1  0  0
   -1.0612  -22.4339   49.3433 O   0  0  0  1  0  0
   -2.6553  -23.8076   48.5256 N   0  0  0  1  0  0
   -3.1782  -23.0809   47.4630 C   0  0  0  1  0  0
   -2.5067  -22.0169   46.8117 C   0  0  0  1  0  0
   -3.1288  -21.3560   45.7337 C   0  0  0  1  0  0
   -4.3670  -21.7205   45.2937 N   0  0  0  1  0  0
   -5.0286  -22.7433   45.9031 C   0  0  0  1  0  0
   -4.4597  -23.4382   46.9848 C   0  0  0  1  0  0
   -1.4659  -24.5088   51.5460 C   0  0  0  1  0  0
   -1.5680  -25.8047   52.3886 C   0  0  0  1  0  0
   -2.4451  -26.7990   51.7176 N   0  0  0  1  0  0
   -3.1959  -27.7400   52.4201 C   0  0  0  1  0  0
   -2.8065  -28.2290   53.6927 C   0  0  0  1  0  0
   -3.5283  -29.2698   54.3031 C   0  0  0  1  0  0
   -4.6317  -29.8506   53.6508 C   0  0  0  1  0  0
   -5.2627  -31.0968   54.2467 C   0  0  0  1  0  0
   -4.1929  -32.0917   54.7358 C   0  0  0  1  0  0
   -3.9843  -33.0753   54.0568 O   0  0  0  1  0  0
   -3.5149  -31.8683   55.8701 O   0  0  0  1  0  0
   -6.5882  -31.6194   53.7063 C   0  0  0  1  0  0
   -6.5405  -30.9493   55.0587 C   0  0  0  1  0  0
   -5.0922  -29.2922   52.4426 C   0  0  0  1  0  0
   -4.3836  -28.2417   51.8392 C   0  0  0  1  0  0
   -2.4859  -26.7510   50.2263 C   0  0  0  1  0  0
   -1.2079  -26.1333   49.6167 C   0  0  0  1  0  0
    0.1129  -23.0088   45.9150 H   0  0
    1.6588  -22.5678   46.6716 H   0  0
    0.1313  -22.3069   47.5544 H   0  0
   -0.2354  -24.7676   47.5778 H   0  0
    2.5154  -24.9121   46.2878 H   0  0
    0.9695  -25.3531   45.5312 H   0  0
    1.5952  -26.3126   46.8982 H   0  0
    3.3544  -24.0137   47.9532 H   0  0
    4.5808  -24.0916   50.1103 H   0  0
    3.3431  -24.5540   52.2218 H   0  0
    0.8832  -24.8154   52.1887 H   0  0
   -3.1961  -24.6934   48.7861 H   0  0
   -1.5142  -21.7111   47.1427 H   0  0
   -2.6085  -20.5349   45.2405 H   0  0
   -6.0179  -23.0285   45.5453 H   0  0
   -5.0079  -24.2542   47.4557 H   0  0
   -0.8585  -23.7875   52.0927 H   0  0
   -2.4618  -24.0749   51.4568 H   0  0
   -0.5731  -26.2312   52.5163 H   0  0
   -1.9794  -25.5668   53.3695 H   0  0
   -1.9441  -27.7963   54.1999 H   0  0
   -3.2312  -29.6293   55.2883 H   0  0
   -4.2620  -31.7555   56.5992 H   0  0
   -6.6570  -32.7035   53.7966 H   0  0
   -6.9968  -30.9571   52.9431 H   0  0
   -6.9261  -29.9306   55.0167 H   0  0
   -6.5847  -31.6762   55.8697 H   0  0
   -5.9994  -29.6761   51.9759 H   0  0
   -4.7536  -27.8069   50.9107 H   0  0
   -2.6091  -27.7635   49.8420 H   0  0
   -3.3486  -26.1632   49.9127 H   0  0
   -1.3128  -26.1210   48.5318 H   0  0
   -0.3658  -26.7875   49.8425 H   0  0
  1  2  1  0
  2  3  1  0
  2  4  1  0
  4  5  2  0
  4  9  1  0
  5  6  1  0
  6  7  2  0
  7  8  1  0
  8  9  2  0
  9 10  1  0
 10 11  1  0
 10 20  1  0
 10 36  1  0
 11 12  2  0
 11 13  1  0
 13 14  1  0
 14 15  2  0
 14 19  1  0
 15 16  1  0
 16 17  2  0
 17 18  1  0
 18 19  2  0
 20 21  1  0
 21 22  1  0
 22 23  1  0
 22 35  1  0
 23 24  2  0
 23 34  1  0
 24 25  1  0
 25 26  2  0
 26 27  1  0
 26 33  1  0
 27 28  1  0
 27 31  1  0
 27 32  1  0
 28 29  2  0
 28 30  1  0
 31 32  1  0
 33 34  2  0
 35 36  1  0
  1 37  1  0
  1 38  1  0
  1 39  1  0
  2 40  1  0
  3 41  1  0
  3 42  1  0
  3 43  1  0
  5 44  1  0
  6 45  1  0
  7 46  1  0
  8 47  1  0
 13 48  1  0
 15 49  1  0
 16 50  1  0
 18 51  1  0
 19 52  1  0
 20 53  1  0
 20 54  1  0
 21 55  1  0
 21 56  1  0
 24 57  1  0
 25 58  1  0
 30 59  1  0
 31 60  1  0
 31 61  1  0
 32 62  1  0
 32 63  1  0
 33 64  1  0
 34 65  1  0
 35 66  1  0
 35 67  1  0
 36 68  1  0
 36 69  1  0
M  END
> <Name>
Molecule

> <AbsoluteEnergy>
71.4372

> <Clean Energy>
200.853

> <ConfNumber>
45

> <MOL_NUMBER>
4

> <RelativeEnergy>
9.91471

> <POSE_NUMBER>
23

> <LibDockScore>
129.8172

> <HotSpots>
0.27,-22.52,46.78,A,23,1
-5.13,-22.92,46.19,A,18,19
-9.53,-30.12,52.78,A,62,31

$$$$
Molecule
  SciTegic05072616053D

 69 73  0  0  0  0            999 V2000
  -10.5985  -27.5971   63.2509 C   0  0  0  1  0  0
  -10.1289  -26.7638   62.0347 C   0  0  0  1  0  0
   -9.0524  -25.7688   62.5128 C   0  0  0  1  0  0
  -11.2240  -26.0752   61.2341 C   0  0  0  1  0  0
  -12.5478  -26.1911   61.7349 C   0  0  0  1  0  0
  -13.6357  -25.5828   61.1051 C   0  0  0  1  0  0
  -13.4304  -24.8253   59.9572 C   0  0  0  1  0  0
  -12.1394  -24.6882   59.4395 C   0  0  0  1  0  0
  -11.0043  -25.3139   60.0247 C   0  0  0  1  0  0
   -9.6443  -25.0764   59.3134 C   0  0  0  1  0  0
   -8.9191  -23.8899   59.9793 C   0  0  0  1  0  0
   -9.4267  -23.3371   60.9290 O   0  0  0  1  0  0
   -7.6919  -23.4591   59.4874 N   0  0  0  1  0  0
   -6.9033  -22.3887   59.9090 C   0  0  0  1  0  0
   -7.2703  -21.4753   60.9281 C   0  0  0  1  0  0
   -6.4003  -20.4231   61.2752 C   0  0  0  1  0  0
   -5.1976  -20.2566   60.6568 N   0  0  0  1  0  0
   -4.8207  -21.1243   59.6774 C   0  0  0  1  0  0
   -5.6487  -22.1924   59.2861 C   0  0  0  1  0  0
   -9.8309  -24.7387   57.7878 C   0  0  0  1  0  0
  -10.4829  -25.8813   56.9832 C   0  0  0  1  0  0
   -9.6769  -27.1314   57.0998 N   0  0  0  1  0  0
   -9.2587  -27.8679   55.9952 C   0  0  0  1  0  0
   -9.2763  -27.3054   54.6980 C   0  0  0  1  0  0
   -8.8403  -28.0455   53.5883 C   0  0  0  1  0  0
   -8.3706  -29.3594   53.7545 C   0  0  0  1  0  0
   -7.8796  -30.1423   52.5613 C   0  0  0  1  0  0
   -6.3671  -30.2881   52.5480 C   0  0  0  1  0  0
   -5.6843  -29.3244   52.2856 O   0  0  0  1  0  0
   -5.8318  -31.4737   52.8304 O   0  0  0  1  0  0
   -8.6053  -30.0042   51.2325 C   0  0  0  1  0  0
   -8.7178  -31.2883   52.0175 C   0  0  0  1  0  0
   -8.3545  -29.9328   55.0372 C   0  0  0  1  0  0
   -8.7984  -29.1959   56.1473 C   0  0  0  1  0  0
   -9.3220  -27.5250   58.4954 C   0  0  0  1  0  0
   -8.7042  -26.3228   59.2419 C   0  0  0  1  0  0
  -11.0244  -26.9413   64.0103 H   0  0
   -9.7580  -28.1488   63.6719 H   0  0
  -11.3605  -28.3047   62.9242 H   0  0
   -9.7178  -27.4710   61.3143 H   0  0
   -8.2030  -26.3100   62.9296 H   0  0
   -9.4694  -25.1025   63.2679 H   0  0
   -8.7140  -25.1758   61.6632 H   0  0
  -12.7203  -26.7736   62.6399 H   0  0
  -14.6403  -25.7011   61.5111 H   0  0
  -14.2726  -24.3406   59.4633 H   0  0
  -11.9965  -24.0756   58.5493 H   0  0
   -7.2975  -24.0282   58.6716 H   0  0
   -8.2246  -21.5866   61.4429 H   0  0
   -6.6966  -19.7248   62.0579 H   0  0
   -3.8572  -20.9885   59.1862 H   0  0
   -5.3217  -22.8719   58.4991 H   0  0
  -10.4494  -23.8458   57.6962 H   0  0
   -8.8573  -24.5128   57.3528 H   0  0
  -11.4874  -26.0639   57.3649 H   0  0
  -10.5495  -25.5929   55.9342 H   0  0
   -9.6327  -26.2848   54.5583 H   0  0
   -8.8661  -27.5996   52.5940 H   0  0
   -6.2621  -32.1397   52.1421 H   0  0
   -7.9210  -30.1063   50.3902 H   0  0
   -9.5030  -29.3936   51.3290 H   0  0
   -9.6759  -31.3626   52.5319 H   0  0
   -8.0928  -32.0747   51.5943 H   0  0
   -7.9961  -30.9534   55.1712 H   0  0
   -8.7879  -29.6528   57.1368 H   0  0
   -8.6023  -28.3432   58.4700 H   0  0
  -10.2202  -27.8528   59.0187 H   0  0
   -8.4493  -26.6321   60.2555 H   0  0
   -7.7779  -26.0377   58.7432 H   0  0
  1  2  1  0
  2  3  1  0
  2  4  1  0
  4  5  2  0
  4  9  1  0
  5  6  1  0
  6  7  2  0
  7  8  1  0
  8  9  2  0
  9 10  1  0
 10 11  1  0
 10 20  1  0
 10 36  1  0
 11 12  2  0
 11 13  1  0
 13 14  1  0
 14 15  2  0
 14 19  1  0
 15 16  1  0
 16 17  2  0
 17 18  1  0
 18 19  2  0
 20 21  1  0
 21 22  1  0
 22 23  1  0
 22 35  1  0
 23 24  2  0
 23 34  1  0
 24 25  1  0
 25 26  2  0
 26 27  1  0
 26 33  1  0
 27 28  1  0
 27 31  1  0
 27 32  1  0
 28 29  2  0
 28 30  1  0
 31 32  1  0
 33 34  2  0
 35 36  1  0
  1 37  1  0
  1 38  1  0
  1 39  1  0
  2 40  1  0
  3 41  1  0
  3 42  1  0
  3 43  1  0
  5 44  1  0
  6 45  1  0
  7 46  1  0
  8 47  1  0
 13 48  1  0
 15 49  1  0
 16 50  1  0
 18 51  1  0
 19 52  1  0
 20 53  1  0
 20 54  1  0
 21 55  1  0
 21 56  1  0
 24 57  1  0
 25 58  1  0
 30 59  1  0
 31 60  1  0
 31 61  1  0
 32 62  1  0
 32 63  1  0
 33 64  1  0
 34 65  1  0
 35 66  1  0
 35 67  1  0
 36 68  1  0
 36 69  1  0
M  END
> <Name>
Molecule

> <AbsoluteEnergy>
71.0466

> <Clean Energy>
200.853

> <ConfNumber>
42

> <MOL_NUMBER>
4

> <RelativeEnergy>
9.52408

> <POSE_NUMBER>
24

> <LibDockScore>
129.5073

> <HotSpots>
-6.93,-20.92,60.98,A,90,16
-8.73,-28.12,54.38,A,70,24
-8.53,-31.32,51.19,A,51,31

$$$$
Molecule
  SciTegic05072616053D

 69 73  0  0  0  0            999 V2000
   -1.0084  -23.1938   47.5963 C   0  0  0  1  0  0
   -0.5667  -24.5677   48.1335 C   0  0  0  1  0  0
   -0.0482  -25.4799   47.0058 C   0  0  0  1  0  0
    0.4283  -24.4341   49.2655 C   0  0  0  1  0  0
    1.7016  -23.9135   48.9381 C   0  0  0  1  0  0
    2.6940  -23.7575   49.9129 C   0  0  0  1  0  0
    2.4296  -24.1197   51.2368 C   0  0  0  1  0  0
    1.1727  -24.6330   51.5841 C   0  0  0  1  0  0
    0.1432  -24.8002   50.6207 C   0  0  0  1  0  0
   -1.2209  -25.3601   51.0466 C   0  0  0  1  0  0
   -2.3247  -24.3384   50.6963 C   0  0  0  1  0  0
   -2.0256  -23.1659   50.6709 O   0  0  0  1  0  0
   -3.6260  -24.7464   50.4192 N   0  0  0  1  0  0
   -4.7874  -23.9785   50.3577 C   0  0  0  1  0  0
   -4.8086  -22.5628   50.3221 C   0  0  0  1  0  0
   -6.0414  -21.8804   50.2839 C   0  0  0  1  0  0
   -7.2301  -22.5489   50.2664 N   0  0  0  1  0  0
   -7.2347  -23.9123   50.2875 C   0  0  0  1  0  0
   -6.0353  -24.6486   50.3299 C   0  0  0  1  0  0
   -1.3618  -25.5399   52.5940 C   0  0  0  1  0  0
   -2.7327  -26.1032   53.0252 C   0  0  0  1  0  0
   -3.1413  -27.2673   52.1837 N   0  0  0  1  0  0
   -4.4465  -27.7550   52.1724 C   0  0  0  1  0  0
   -5.5439  -26.9050   52.4426 C   0  0  0  1  0  0
   -6.8590  -27.3947   52.4089 C   0  0  0  1  0  0
   -7.1031  -28.7450   52.1068 C   0  0  0  1  0  0
   -8.5173  -29.2757   52.0689 C   0  0  0  1  0  0
   -9.2264  -29.1559   53.4088 C   0  0  0  1  0  0
   -9.2512  -28.0843   53.9736 O   0  0  0  1  0  0
   -9.8037  -30.2417   53.9279 O   0  0  0  1  0  0
   -8.8231  -30.4956   51.2166 C   0  0  0  1  0  0
   -9.3266  -29.1416   50.7880 C   0  0  0  1  0  0
   -6.0213  -29.6011   51.8466 C   0  0  0  1  0  0
   -4.7059  -29.1131   51.8813 C   0  0  0  1  0  0
   -2.0662  -27.8590   51.3363 C   0  0  0  1  0  0
   -1.3836  -26.8034   50.4290 C   0  0  0  1  0  0
   -1.7968  -23.3471   46.8594 H   0  0
   -0.1554  -22.7221   47.1084 H   0  0
   -1.3713  -22.5648   48.4092 H   0  0
   -1.4500  -25.0526   48.5491 H   0  0
    0.7963  -24.9881   46.5231 H   0  0
   -0.8450  -25.6131   46.2741 H   0  0
    0.2588  -26.4458   47.4069 H   0  0
    1.9142  -23.6284   47.9077 H   0  0
    3.6696  -23.3549   49.6405 H   0  0
    3.2005  -24.0030   51.9985 H   0  0
    0.9805  -24.9110   52.6204 H   0  0
   -3.7520  -25.7915   50.2273 H   0  0
   -3.8738  -22.0023   50.3242 H   0  0
   -6.0448  -20.7905   50.2679 H   0  0
   -8.1866  -24.4431   50.2712 H   0  0
   -6.0670  -25.7381   50.3414 H   0  0
   -1.2096  -24.5752   53.0781 H   0  0
   -0.5788  -26.2123   52.9444 H   0  0
   -2.6788  -26.4179   54.0674 H   0  0
   -3.4858  -25.3198   52.9397 H   0  0
   -5.3663  -25.8561   52.6801 H   0  0
   -7.6935  -26.7253   52.6178 H   0  0
   -9.0386  -30.9581   53.9903 H   0  0
   -9.6173  -31.1006   51.6540 H   0  0
   -7.9545  -30.8049   50.6353 H   0  0
   -8.7270  -28.7269   49.9777 H   0  0
  -10.3895  -29.0220   50.9980 H   0  0
   -6.2040  -30.6507   51.6163 H   0  0
   -3.8749  -29.7895   51.6814 H   0  0
   -2.4954  -28.6416   50.7107 H   0  0
   -1.3144  -28.3133   51.9816 H   0  0
   -0.3976  -27.1751   50.1500 H   0  0
   -1.9554  -26.7222   49.5046 H   0  0
  1  2  1  0
  2  3  1  0
  2  4  1  0
  4  5  2  0
  4  9  1  0
  5  6  1  0
  6  7  2  0
  7  8  1  0
  8  9  2  0
  9 10  1  0
 10 11  1  0
 10 20  1  0
 10 36  1  0
 11 12  2  0
 11 13  1  0
 13 14  1  0
 14 15  2  0
 14 19  1  0
 15 16  1  0
 16 17  2  0
 17 18  1  0
 18 19  2  0
 20 21  1  0
 21 22  1  0
 22 23  1  0
 22 35  1  0
 23 24  2  0
 23 34  1  0
 24 25  1  0
 25 26  2  0
 26 27  1  0
 26 33  1  0
 27 28  1  0
 27 31  1  0
 27 32  1  0
 28 29  2  0
 28 30  1  0
 31 32  1  0
 33 34  2  0
 35 36  1  0
  1 37  1  0
  1 38  1  0
  1 39  1  0
  2 40  1  0
  3 41  1  0
  3 42  1  0
  3 43  1  0
  5 44  1  0
  6 45  1  0
  7 46  1  0
  8 47  1  0
 13 48  1  0
 15 49  1  0
 16 50  1  0
 18 51  1  0
 19 52  1  0
 20 53  1  0
 20 54  1  0
 21 55  1  0
 21 56  1  0
 24 57  1  0
 25 58  1  0
 30 59  1  0
 31 60  1  0
 31 61  1  0
 32 62  1  0
 32 63  1  0
 33 64  1  0
 34 65  1  0
 35 66  1  0
 35 67  1  0
 36 68  1  0
 36 69  1  0
M  END
> <Name>
Molecule

> <AbsoluteEnergy>
65.7298

> <Clean Energy>
200.853

> <ConfNumber>
11

> <MOL_NUMBER>
4

> <RelativeEnergy>
4.20728

> <POSE_NUMBER>
25

> <LibDockScore>
129.2662

> <HotSpots>
0.27,-24.92,46.38,A,19,3
1.67,-24.32,50.98,A,50,8
-5.33,-24.12,49.78,A,36,19

$$$$
Molecule
  SciTegic05072616053D

 69 73  0  0  0  0            999 V2000
   -5.2640  -24.2622   46.1246 C   0  0  0  1  0  0
   -4.8202  -23.5886   47.4383 C   0  0  0  1  0  0
   -5.9434  -22.7115   48.0251 C   0  0  0  1  0  0
   -3.5221  -22.8276   47.2902 C   0  0  0  1  0  0
   -3.4458  -21.9875   46.1587 C   0  0  0  1  0  0
   -2.3417  -21.1580   45.9326 C   0  0  0  1  0  0
   -1.2935  -21.1445   46.8524 C   0  0  0  1  0  0
   -1.3397  -21.9834   47.9761 C   0  0  0  1  0  0
   -2.4161  -22.8939   48.2060 C   0  0  0  1  0  0
   -2.3582  -23.8641   49.4147 C   0  0  0  1  0  0
   -0.9367  -23.9838   50.0460 C   0  0  0  1  0  0
   -0.8411  -24.1196   51.2463 O   0  0  0  1  0  0
    0.2362  -23.9469   49.2797 N   0  0  0  1  0  0
    1.5316  -24.0045   49.7874 C   0  0  0  1  0  0
    1.7905  -24.5665   51.0566 C   0  0  0  1  0  0
    3.1052  -24.6168   51.5529 C   0  0  0  1  0  0
    4.1585  -24.1292   50.8328 N   0  0  0  1  0  0
    3.9355  -23.5893   49.5992 C   0  0  0  1  0  0
    2.6391  -23.5211   49.0457 C   0  0  0  1  0  0
   -3.3981  -23.3619   50.5009 C   0  0  0  1  0  0
   -4.6730  -24.2003   50.8012 C   0  0  0  1  0  0
   -4.4641  -25.6779   50.8448 N   0  0  0  1  0  0
   -5.4168  -26.5292   51.4437 C   0  0  0  1  0  0
   -5.0968  -27.8769   51.7358 C   0  0  0  1  0  0
   -6.0335  -28.7379   52.3434 C   0  0  0  1  0  0
   -7.3124  -28.2702   52.7090 C   0  0  0  1  0  0
   -8.3196  -29.1779   53.4210 C   0  0  0  1  0  0
   -9.3779  -29.8437   52.5163 C   0  0  0  1  0  0
   -9.3432  -29.6373   51.3227 O   0  0  0  1  0  0
  -10.3360  -30.6353   53.0352 O   0  0  0  1  0  0
   -7.8773  -29.9191   54.6801 C   0  0  0  1  0  0
   -8.7881  -28.7210   54.7973 C   0  0  0  1  0  0
   -7.6497  -26.9352   52.4157 C   0  0  0  1  0  0
   -6.7205  -26.0793   51.7875 C   0  0  0  1  0  0
   -3.1903  -26.2014   50.2472 C   0  0  0  1  0  0
   -2.6571  -25.3650   49.0582 C   0  0  0  1  0  0
   -5.5331  -23.4865   45.4076 H   0  0
   -6.1401  -24.8785   46.3264 H   0  0
   -4.4587  -24.8778   45.7239 H   0  0
   -4.6216  -24.3868   48.1535 H   0  0
   -6.8146  -23.3389   48.2133 H   0  0
   -6.2076  -21.9470   47.2945 H   0  0
   -5.6130  -22.2435   48.9524 H   0  0
   -4.2677  -21.9847   45.4428 H   0  0
   -2.3013  -20.5273   45.0445 H   0  0
   -0.4403  -20.4838   46.6987 H   0  0
   -0.5254  -21.9388   48.6993 H   0  0
    0.1274  -23.8681   48.2182 H   0  0
    0.9688  -24.9625   51.6534 H   0  0
    3.2879  -25.0547   52.5342 H   0  0
    4.7789  -23.2015   49.0279 H   0  0
    2.4898  -23.0985   48.0521 H   0  0
   -3.7193  -22.3590   50.2196 H   0  0
   -2.8617  -23.2255   51.4399 H   0  0
   -5.4244  -23.9791   50.0432 H   0  0
   -5.0842  -23.8802   51.7585 H   0  0
   -4.1061  -28.2567   51.4859 H   0  0
   -5.7658  -29.7774   52.5327 H   0  0
  -10.8054  -30.0313   53.7545 H   0  0
   -6.8502  -29.6720   54.9486 H   0  0
   -8.4235  -30.8541   54.8046 H   0  0
   -9.8200  -29.0167   54.9867 H   0  0
   -8.2471  -27.8348   55.1291 H   0  0
   -8.6389  -26.5590   52.6766 H   0  0
   -7.0082  -25.0526   51.5613 H   0  0
   -3.3550  -27.2248   49.9102 H   0  0
   -2.4264  -26.2339   51.0240 H   0  0
   -1.7432  -25.8281   48.6860 H   0  0
   -3.3894  -25.3960   48.2514 H   0  0
  1  2  1  0
  2  3  1  0
  2  4  1  0
  4  5  2  0
  4  9  1  0
  5  6  1  0
  6  7  2  0
  7  8  1  0
  8  9  2  0
  9 10  1  0
 10 11  1  0
 10 20  1  0
 10 36  1  0
 11 12  2  0
 11 13  1  0
 13 14  1  0
 14 15  2  0
 14 19  1  0
 15 16  1  0
 16 17  2  0
 17 18  1  0
 18 19  2  0
 20 21  1  0
 21 22  1  0
 22 23  1  0
 22 35  1  0
 23 24  2  0
 23 34  1  0
 24 25  1  0
 25 26  2  0
 26 27  1  0
 26 33  1  0
 27 28  1  0
 27 31  1  0
 27 32  1  0
 28 29  2  0
 28 30  1  0
 31 32  1  0
 33 34  2  0
 35 36  1  0
  1 37  1  0
  1 38  1  0
  1 39  1  0
  2 40  1  0
  3 41  1  0
  3 42  1  0
  3 43  1  0
  5 44  1  0
  6 45  1  0
  7 46  1  0
  8 47  1  0
 13 48  1  0
 15 49  1  0
 16 50  1  0
 18 51  1  0
 19 52  1  0
 20 53  1  0
 20 54  1  0
 21 55  1  0
 21 56  1  0
 24 57  1  0
 25 58  1  0
 30 59  1  0
 31 60  1  0
 31 61  1  0
 32 62  1  0
 32 63  1  0
 33 64  1  0
 34 65  1  0
 35 66  1  0
 35 67  1  0
 36 68  1  0
 36 69  1  0
M  END
> <Name>
Molecule

> <AbsoluteEnergy>
79.3902

> <Clean Energy>
200.853

> <ConfNumber>
94

> <MOL_NUMBER>
4

> <RelativeEnergy>
17.8677

> <POSE_NUMBER>
26

> <LibDockScore>
128.3603

> <HotSpots>
-4.93,-23.52,47.59,A,26,3
2.27,-24.92,52.19,A,58,15
-6.33,-26.32,51.98,A,57,34

$$$$
Molecule
  SciTegic05072616053D

 69 73  0  0  0  0            999 V2000
   -0.2378  -23.3347   47.1374 C   0  0  0  1  0  0
    0.1636  -24.6643   47.8014 C   0  0  0  1  0  0
    0.8676  -25.6068   46.8076 C   0  0  0  1  0  0
    0.9787  -24.4436   49.0555 C   0  0  0  1  0  0
    2.3069  -23.9924   48.8850 C   0  0  0  1  0  0
    3.1436  -23.7667   49.9836 C   0  0  0  1  0  0
    2.6634  -23.9864   51.2769 C   0  0  0  1  0  0
    1.3482  -24.4284   51.4695 C   0  0  0  1  0  0
    0.4734  -24.6625   50.3780 C   0  0  0  1  0  0
   -0.9631  -25.1350   50.6379 C   0  0  0  1  0  0
   -1.9183  -24.4069   49.6737 C   0  0  0  1  0  0
   -2.0302  -23.2035   49.7777 O   0  0  0  1  0  0
   -2.6356  -25.0840   48.6993 N   0  0  0  1  0  0
   -3.4917  -24.4700   47.8059 C   0  0  0  1  0  0
   -3.8178  -25.0937   46.5843 C   0  0  0  1  0  0
   -4.6923  -24.4482   45.6883 C   0  0  0  1  0  0
   -5.2409  -23.2349   45.9822 N   0  0  0  1  0  0
   -4.9383  -22.6215   47.1612 C   0  0  0  1  0  0
   -4.0660  -23.2149   48.0926 C   0  0  0  1  0  0
   -1.0038  -26.7098   50.6059 C   0  0  0  1  0  0
   -1.9227  -27.4016   51.6463 C   0  0  0  1  0  0
   -3.1429  -26.6105   51.9722 N   0  0  0  1  0  0
   -4.4037  -27.1864   52.0157 C   0  0  0  1  0  0
   -4.5531  -28.5899   51.9580 C   0  0  0  1  0  0
   -5.8246  -29.1757   52.0756 C   0  0  0  1  0  0
   -6.9634  -28.3680   52.2489 C   0  0  0  1  0  0
   -8.3230  -28.9975   52.4642 C   0  0  0  1  0  0
   -8.9118  -28.6644   53.8363 C   0  0  0  1  0  0
   -9.4042  -29.5452   54.5065 O   0  0  0  1  0  0
   -8.8664  -27.3995   54.2645 O   0  0  0  1  0  0
   -8.6145  -30.3569   51.8445 C   0  0  0  1  0  0
   -9.2769  -29.1200   51.2857 C   0  0  0  1  0  0
   -6.8266  -26.9667   52.2457 C   0  0  0  1  0  0
   -5.5571  -26.3803   52.1318 C   0  0  0  1  0  0
   -2.9557  -25.1665   52.2838 C   0  0  0  1  0  0
   -1.5039  -24.7164   52.0411 C   0  0  0  1  0  0
   -0.9061  -23.5515   46.3041 H   0  0
    0.6618  -22.8539   46.7532 H   0  0
   -0.7338  -22.6832   47.8569 H   0  0
   -0.7559  -25.1614   48.1104 H   0  0
    1.7575  -25.1061   46.4263 H   0  0
    0.1896  -25.8037   45.9772 H   0  0
    1.1430  -26.5409   47.2972 H   0  0
    2.6869  -23.8168   47.8786 H   0  0
    4.1659  -23.4209   49.8309 H   0  0
    3.3119  -23.8139   52.1359 H   0  0
    0.9879  -24.5967   52.4843 H   0  0
   -2.5190  -26.1457   48.6356 H   0  0
   -3.3966  -26.0677   46.3351 H   0  0
   -4.9355  -24.9285   44.7405 H   0  0
   -5.3810  -21.6515   47.3873 H   0  0
   -3.8360  -22.7074   49.0294 H   0  0
    0.0106  -27.0847   50.7417 H   0  0
   -1.3140  -27.0265   49.6101 H   0  0
   -1.3575  -27.5703   52.5629 H   0  0
   -2.2266  -28.3742   51.2593 H   0  0
   -3.6761  -29.2226   51.8213 H   0  0
   -5.9292  -30.2598   52.0324 H   0  0
   -9.3511  -26.8390   53.5206 H   0  0
   -9.3015  -30.9379   52.4598 H   0  0
   -7.7917  -30.6927   51.2133 H   0  0
   -8.8079  -28.7978   50.3560 H   0  0
  -10.3166  -29.0421   51.6035 H   0  0
   -7.7106  -26.3349   52.3321 H   0  0
   -5.4605  -25.2946   52.1329 H   0  0
   -3.2153  -24.9884   53.3273 H   0  0
   -3.6228  -24.5759   51.6559 H   0  0
   -1.4500  -23.6317   52.1340 H   0  0
   -0.8658  -25.1502   52.8110 H   0  0
  1  2  1  0
  2  3  1  0
  2  4  1  0
  4  5  2  0
  4  9  1  0
  5  6  1  0
  6  7  2  0
  7  8  1  0
  8  9  2  0
  9 10  1  0
 10 11  1  0
 10 20  1  0
 10 36  1  0
 11 12  2  0
 11 13  1  0
 13 14  1  0
 14 15  2  0
 14 19  1  0
 15 16  1  0
 16 17  2  0
 17 18  1  0
 18 19  2  0
 20 21  1  0
 21 22  1  0
 22 23  1  0
 22 35  1  0
 23 24  2  0
 23 34  1  0
 24 25  1  0
 25 26  2  0
 26 27  1  0
 26 33  1  0
 27 28  1  0
 27 31  1  0
 27 32  1  0
 28 29  2  0
 28 30  1  0
 31 32  1  0
 33 34  2  0
 35 36  1  0
  1 37  1  0
  1 38  1  0
  1 39  1  0
  2 40  1  0
  3 41  1  0
  3 42  1  0
  3 43  1  0
  5 44  1  0
  6 45  1  0
  7 46  1  0
  8 47  1  0
 13 48  1  0
 15 49  1  0
 16 50  1  0
 18 51  1  0
 19 52  1  0
 20 53  1  0
 20 54  1  0
 21 55  1  0
 21 56  1  0
 24 57  1  0
 25 58  1  0
 30 59  1  0
 31 60  1  0
 31 61  1  0
 32 62  1  0
 32 63  1  0
 33 64  1  0
 34 65  1  0
 35 66  1  0
 35 67  1  0
 36 68  1  0
 36 69  1  0
M  END
> <Name>
Molecule

> <AbsoluteEnergy>
70.8074

> <Clean Energy>
200.853

> <ConfNumber>
41

> <MOL_NUMBER>
4

> <RelativeEnergy>
9.28485

> <POSE_NUMBER>
27

> <LibDockScore>
128.0467

> <HotSpots>
1.27,-23.52,47.59,A,27,1
-2.93,-26.32,45.98,A,15,16
-6.53,-30.72,51.78,A,56,32

$$$$
Molecule
  SciTegic05072616053D

 69 73  0  0  0  0            999 V2000
   -0.9505  -24.0986   48.5606 C   0  0  0  1  0  0
   -0.1911  -25.2368   49.2658 C   0  0  0  1  0  0
    1.0902  -25.6022   48.4820 C   0  0  0  1  0  0
    0.0512  -24.9187   50.7265 C   0  0  0  1  0  0
    1.0826  -23.9840   50.9919 C   0  0  0  1  0  0
    1.4413  -23.6263   52.2966 C   0  0  0  1  0  0
    0.7637  -24.1884   53.3774 C   0  0  0  1  0  0
   -0.2763  -25.0911   53.1457 C   0  0  0  1  0  0
   -0.6770  -25.4730   51.8373 C   0  0  0  1  0  0
   -1.8783  -26.4357   51.8275 C   0  0  0  1  0  0
   -3.1555  -25.5694   51.8508 C   0  0  0  1  0  0
   -3.9293  -25.6639   52.7778 O   0  0  0  1  0  0
   -3.3821  -24.6812   50.8043 N   0  0  0  1  0  0
   -4.5220  -23.9348   50.5142 C   0  0  0  1  0  0
   -4.4317  -22.9156   49.5376 C   0  0  0  1  0  0
   -5.5567  -22.1283   49.2265 C   0  0  0  1  0  0
   -6.7525  -22.3277   49.8464 N   0  0  0  1  0  0
   -6.8696  -23.3093   50.7853 C   0  0  0  1  0  0
   -5.7775  -24.1287   51.1368 C   0  0  0  1  0  0
   -2.0897  -27.4268   50.6388 C   0  0  0  1  0  0
   -3.4071  -28.2406   50.7761 C   0  0  0  1  0  0
   -3.6044  -28.7242   52.1804 N   0  0  0  1  0  0
   -4.8446  -29.0440   52.7320 C   0  0  0  1  0  0
   -6.0499  -28.6890   52.0831 C   0  0  0  1  0  0
   -7.2845  -28.8524   52.7308 C   0  0  0  1  0  0
   -7.3329  -29.3762   54.0330 C   0  0  0  1  0  0
   -8.6334  -29.3713   54.8010 C   0  0  0  1  0  0
   -8.8834  -28.0227   55.4816 C   0  0  0  1  0  0
   -9.3829  -27.1196   54.8433 O   0  0  0  1  0  0
   -8.5445  -27.8668   56.7615 O   0  0  0  1  0  0
   -9.0948  -30.6499   55.4864 C   0  0  0  1  0  0
   -9.8270  -30.1453   54.2652 C   0  0  0  1  0  0
   -6.1610  -29.8664   54.6297 C   0  0  0  1  0  0
   -4.9280  -29.7074   53.9802 C   0  0  0  1  0  0
   -2.3590  -28.7631   52.9904 C   0  0  0  1  0  0
   -1.7551  -27.3492   53.1054 C   0  0  0  1  0  0
   -1.2189  -24.4204   47.5544 H   0  0
   -0.3018  -23.2250   48.4962 H   0  0
   -1.8516  -23.8486   49.1206 H   0  0
   -0.8131  -26.1319   49.2666 H   0  0
    1.7307  -24.7226   48.4179 H   0  0
    0.8136  -25.9180   47.4761 H   0  0
    1.6202  -26.4084   48.9892 H   0  0
    1.6126  -23.5299   50.1547 H   0  0
    2.2466  -22.9117   52.4668 H   0  0
    1.0440  -23.9249   54.3973 H   0  0
   -0.8002  -25.5186   54.0006 H   0  0
   -2.5647  -24.5532   50.1258 H   0  0
   -3.4869  -22.7389   49.0236 H   0  0
   -5.4687  -21.3439   48.4748 H   0  0
   -7.8305  -23.4643   51.2759 H   0  0
   -5.9002  -24.9101   51.8868 H   0  0
   -2.1151  -26.8639   49.7057 H   0  0
   -1.2480  -28.1180   50.5958 H   0  0
   -3.3724  -29.0981   50.1041 H   0  0
   -4.2499  -27.6100   50.4931 H   0  0
   -6.0200  -28.2850   51.0712 H   0  0
   -8.2070  -28.5723   52.2223 H   0  0
   -7.5229  -28.1059   56.8028 H   0  0
   -9.6457  -30.4363   56.4024 H   0  0
   -8.4426  -31.4895   55.2460 H   0  0
   -9.5662  -30.7177   53.3750 H   0  0
  -10.7679  -29.6635   54.5310 H   0  0
   -6.2089  -30.3694   55.5955 H   0  0
   -4.0221  -30.0997   54.4424 H   0  0
   -2.5876  -29.1404   53.9872 H   0  0
   -1.6371  -29.4263   52.5138 H   0  0
   -0.7001  -27.4455   53.3618 H   0  0
   -2.2302  -26.8395   53.9436 H   0  0
  1  2  1  0
  2  3  1  0
  2  4  1  0
  4  5  2  0
  4  9  1  0
  5  6  1  0
  6  7  2  0
  7  8  1  0
  8  9  2  0
  9 10  1  0
 10 11  1  0
 10 20  1  0
 10 36  1  0
 11 12  2  0
 11 13  1  0
 13 14  1  0
 14 15  2  0
 14 19  1  0
 15 16  1  0
 16 17  2  0
 17 18  1  0
 18 19  2  0
 20 21  1  0
 21 22  1  0
 22 23  1  0
 22 35  1  0
 23 24  2  0
 23 34  1  0
 24 25  1  0
 25 26  2  0
 26 27  1  0
 26 33  1  0
 27 28  1  0
 27 31  1  0
 27 32  1  0
 28 29  2  0
 28 30  1  0
 31 32  1  0
 33 34  2  0
 35 36  1  0
  1 37  1  0
  1 38  1  0
  1 39  1  0
  2 40  1  0
  3 41  1  0
  3 42  1  0
  3 43  1  0
  5 44  1  0
  6 45  1  0
  7 46  1  0
  8 47  1  0
 13 48  1  0
 15 49  1  0
 16 50  1  0
 18 51  1  0
 19 52  1  0
 20 53  1  0
 20 54  1  0
 21 55  1  0
 21 56  1  0
 24 57  1  0
 25 58  1  0
 30 59  1  0
 31 60  1  0
 31 61  1  0
 32 62  1  0
 32 63  1  0
 33 64  1  0
 34 65  1  0
 35 66  1  0
 35 67  1  0
 36 68  1  0
 36 69  1  0
M  END
> <Name>
Molecule

> <AbsoluteEnergy>
77.3614

> <Clean Energy>
200.853

> <ConfNumber>
80

> <MOL_NUMBER>
4

> <RelativeEnergy>
15.8389

> <POSE_NUMBER>
28

> <LibDockScore>
127.7861

> <HotSpots>
1.67,-24.32,50.98,A,50,5
-5.33,-24.12,49.78,A,36,19
-9.53,-30.12,52.78,A,62,32

$$$$
Molecule
  SciTegic05072616053D

 69 73  0  0  0  0            999 V2000
   -5.3255  -24.5930   46.3597 C   0  0  0  1  0  0
   -4.8917  -23.5936   47.4485 C   0  0  0  1  0  0
   -6.1026  -22.8135   47.9934 C   0  0  0  1  0  0
   -3.7762  -22.6723   46.9939 C   0  0  0  1  0  0
   -4.0083  -21.9854   45.7840 C   0  0  0  1  0  0
   -3.0868  -21.0589   45.2854 C   0  0  0  1  0  0
   -1.9187  -20.7895   46.0027 C   0  0  0  1  0  0
   -1.6614  -21.4656   47.2054 C   0  0  0  1  0  0
   -2.5466  -22.4603   47.7130 C   0  0  0  1  0  0
   -2.2135  -23.2602   48.9951 C   0  0  0  1  0  0
   -0.7117  -23.3493   49.3996 C   0  0  0  1  0  0
    0.1590  -23.1182   48.5896 O   0  0  0  1  0  0
   -0.3504  -23.7365   50.6883 N   0  0  0  1  0  0
    0.8361  -24.3290   51.1105 C   0  0  0  1  0  0
    0.9166  -24.8014   52.4424 C   0  0  0  1  0  0
    2.0962  -25.4109   52.9032 C   0  0  0  1  0  0
    3.1795  -25.5631   52.0910 N   0  0  0  1  0  0
    3.1317  -25.1116   50.8052 C   0  0  0  1  0  0
    1.9787  -24.4877   50.2884 C   0  0  0  1  0  0
   -2.5127  -24.7755   48.7582 C   0  0  0  1  0  0
   -2.7586  -25.5720   50.0397 C   0  0  0  1  0  0
   -3.8914  -25.0083   50.8146 N   0  0  0  1  0  0
   -4.8507  -25.8637   51.3392 C   0  0  0  1  0  0
   -6.1251  -25.3968   51.7345 C   0  0  0  1  0  0
   -7.0841  -26.2940   52.2360 C   0  0  0  1  0  0
   -6.7884  -27.6678   52.3421 C   0  0  0  1  0  0
   -7.8370  -28.6370   52.8377 C   0  0  0  1  0  0
   -8.2778  -28.3993   54.2742 C   0  0  0  1  0  0
   -9.3256  -27.8291   54.4871 O   0  0  0  1  0  0
   -7.5099  -28.8388   55.2700 O   0  0  0  1  0  0
   -8.8722  -29.1638   51.8562 C   0  0  0  1  0  0
   -7.7836  -30.0802   52.3605 C   0  0  0  1  0  0
   -5.5140  -28.1323   51.9717 C   0  0  0  1  0  0
   -4.5529  -27.2383   51.4752 C   0  0  0  1  0  0
   -3.9876  -23.5299   51.0315 C   0  0  0  1  0  0
   -3.0624  -22.6255   50.1670 C   0  0  0  1  0  0
   -5.8010  -24.0442   45.5468 H   0  0
   -6.0453  -25.2905   46.7880 H   0  0
   -4.4597  -25.1377   45.9832 H   0  0
   -4.4743  -24.1779   48.2685 H   0  0
   -6.8180  -23.5210   48.4126 H   0  0
   -6.5737  -22.2747   47.1713 H   0  0
   -5.7817  -22.1107   48.7622 H   0  0
   -4.9243  -22.1806   45.2264 H   0  0
   -3.2792  -20.5493   44.3413 H   0  0
   -1.2068  -20.0539   45.6282 H   0  0
   -0.7592  -21.2230   47.7669 H   0  0
   -1.0784  -23.5551   51.4512 H   0  0
    0.0629  -24.6924   53.1113 H   0  0
    2.1454  -25.7692   53.9315 H   0  0
    4.0039  -25.2359   50.1635 H   0  0
    1.9661  -24.1284   49.2594 H   0  0
   -1.6733  -25.2215   48.2247 H   0  0
   -3.3895  -24.8648   48.1169 H   0  0
   -1.8590  -25.5513   50.6548 H   0  0
   -2.9813  -26.6074   49.7819 H   0  0
   -6.3651  -24.3369   51.6501 H   0  0
   -8.0622  -25.9249   52.5446 H   0  0
   -6.5715  -28.3976   55.1052 H   0  0
   -8.6716  -28.8217   50.8409 H   0  0
   -9.8246  -29.3618   52.3479 H   0  0
   -8.1561  -30.7670   53.1205 H   0  0
   -7.0024  -30.2256   51.6144 H   0  0
   -5.2717  -29.1904   52.0705 H   0  0
   -3.5674  -27.6078   51.1918 H   0  0
   -3.7833  -23.3245   52.0823 H   0  0
   -5.0206  -23.2267   50.8608 H   0  0
   -3.6762  -21.8302   49.7442 H   0  0
   -2.3741  -22.1143   50.8401 H   0  0
  1  2  1  0
  2  3  1  0
  2  4  1  0
  4  5  2  0
  4  9  1  0
  5  6  1  0
  6  7  2  0
  7  8  1  0
  8  9  2  0
  9 10  1  0
 10 11  1  0
 10 20  1  0
 10 36  1  0
 11 12  2  0
 11 13  1  0
 13 14  1  0
 14 15  2  0
 14 19  1  0
 15 16  1  0
 16 17  2  0
 17 18  1  0
 18 19  2  0
 20 21  1  0
 21 22  1  0
 22 23  1  0
 22 35  1  0
 23 24  2  0
 23 34  1  0
 24 25  1  0
 25 26  2  0
 26 27  1  0
 26 33  1  0
 27 28  1  0
 27 31  1  0
 27 32  1  0
 28 29  2  0
 28 30  1  0
 31 32  1  0
 33 34  2  0
 35 36  1  0
  1 37  1  0
  1 38  1  0
  1 39  1  0
  2 40  1  0
  3 41  1  0
  3 42  1  0
  3 43  1  0
  5 44  1  0
  6 45  1  0
  7 46  1  0
  8 47  1  0
 13 48  1  0
 15 49  1  0
 16 50  1  0
 18 51  1  0
 19 52  1  0
 20 53  1  0
 20 54  1  0
 21 55  1  0
 21 56  1  0
 24 57  1  0
 25 58  1  0
 30 59  1  0
 31 60  1  0
 31 61  1  0
 32 62  1  0
 32 63  1  0
 33 64  1  0
 34 65  1  0
 35 66  1  0
 35 67  1  0
 36 68  1  0
 36 69  1  0
M  END
> <Name>
Molecule

> <AbsoluteEnergy>
78.9179

> <Clean Energy>
200.853

> <ConfNumber>
88

> <MOL_NUMBER>
4

> <RelativeEnergy>
17.3954

> <POSE_NUMBER>
29

> <LibDockScore>
127.758

> <HotSpots>
-5.53,-22.92,48.98,A,33,3
2.27,-24.92,52.19,A,58,19
-9.33,-29.92,51.19,A,52,31

$$$$
Molecule
  SciTegic05072616053D

 69 73  0  0  0  0            999 V2000
   -5.3102  -24.2640   46.1851 C   0  0  0  1  0  0
   -4.8510  -23.5449   47.4690 C   0  0  0  1  0  0
   -5.9572  -22.6249   48.0216 C   0  0  0  1  0  0
   -3.5403  -22.8133   47.2869 C   0  0  0  1  0  0
   -3.4662  -21.9930   46.1407 C   0  0  0  1  0  0
   -2.3494  -21.1903   45.8827 C   0  0  0  1  0  0
   -1.2856  -21.1839   46.7846 C   0  0  0  1  0  0
   -1.3298  -22.0037   47.9224 C   0  0  0  1  0  0
   -2.4205  -22.8879   48.1850 C   0  0  0  1  0  0
   -2.3618  -23.8398   49.4081 C   0  0  0  1  0  0
   -0.9403  -23.9485   50.0415 C   0  0  0  1  0  0
   -0.8329  -23.8899   51.2471 O   0  0  0  1  0  0
    0.2190  -24.1176   49.2723 N   0  0  0  1  0  0
    1.5207  -24.1145   49.7668 C   0  0  0  1  0  0
    1.8125  -24.6295   51.0486 C   0  0  0  1  0  0
    3.1332  -24.6187   51.5313 C   0  0  0  1  0  0
    4.1610  -24.1154   50.7856 N   0  0  0  1  0  0
    3.9062  -23.6201   49.5394 C   0  0  0  1  0  0
    2.6026  -23.6141   48.9989 C   0  0  0  1  0  0
   -3.4025  -23.3224   50.4865 C   0  0  0  1  0  0
   -4.6766  -24.1576   50.7991 C   0  0  0  1  0  0
   -4.4662  -25.6341   50.8649 N   0  0  0  1  0  0
   -5.4181  -26.4774   51.4763 C   0  0  0  1  0  0
   -5.0902  -27.8143   51.8069 C   0  0  0  1  0  0
   -6.0263  -28.6668   52.4274 C   0  0  0  1  0  0
   -7.3125  -28.2004   52.7678 C   0  0  0  1  0  0
   -8.3196  -29.0974   53.4932 C   0  0  0  1  0  0
   -9.3534  -29.8077   52.5940 C   0  0  0  1  0  0
   -9.3191  -29.6183   51.3976 O   0  0  0  1  0  0
  -10.2901  -30.6197   53.1205 O   0  0  0  1  0  0
   -7.8892  -29.7897   54.7838 C   0  0  0  1  0  0
   -8.8176  -28.6010   54.8452 C   0  0  0  1  0  0
   -7.6575  -26.8763   52.4362 C   0  0  0  1  0  0
   -6.7288  -26.0295   51.7951 C   0  0  0  1  0  0
   -3.1917  -26.1652   50.2755 C   0  0  0  1  0  0
   -2.6591  -25.3462   49.0742 C   0  0  0  1  0  0
   -5.5678  -23.5139   45.4374 H   0  0
   -6.1963  -24.8561   46.4140 H   0  0
   -4.5169  -24.9096   45.8083 H   0  0
   -4.6641  -24.3164   48.2160 H   0  0
   -6.8386  -23.2287   48.2373 H   0  0
   -6.2102  -21.8865   47.2608 H   0  0
   -5.6161  -22.1250   48.9282 H   0  0
   -4.3000  -21.9846   45.4387 H   0  0
   -2.3112  -20.5749   44.9839 H   0  0
   -0.4218  -20.5435   46.6060 H   0  0
   -0.5025  -21.9645   48.6310 H   0  0
    0.0936  -24.2607   48.2194 H   0  0
    1.0117  -25.0367   51.6658 H   0  0
    3.3414  -25.0210   52.5227 H   0  0
    4.7293  -23.2196   48.9476 H   0  0
    2.4281  -23.2264   47.9952 H   0  0
   -3.7247  -22.3242   50.1901 H   0  0
   -2.8664  -23.1714   51.4235 H   0  0
   -5.4281  -23.9486   50.0377 H   0  0
   -5.0884  -23.8236   51.7514 H   0  0
   -4.0940  -28.1922   51.5771 H   0  0
   -5.7523  -29.6988   52.6465 H   0  0
  -10.7806  -30.0194   53.8287 H   0  0
   -6.8702  -29.5196   55.0609 H   0  0
   -8.4251  -30.7274   54.9307 H   0  0
   -9.8486  -28.9044   55.0273 H   0  0
   -8.2941  -27.6968   55.1558 H   0  0
   -8.6523  -26.5016   52.6772 H   0  0
   -7.0223  -25.0114   51.5392 H   0  0
   -3.3553  -27.1938   49.9539 H   0  0
   -2.4279  -26.1853   51.0529 H   0  0
   -1.7447  -25.8139   48.7092 H   0  0
   -3.3912  -25.3901   48.2678 H   0  0
  1  2  1  0
  2  3  1  0
  2  4  1  0
  4  5  2  0
  4  9  1  0
  5  6  1  0
  6  7  2  0
  7  8  1  0
  8  9  2  0
  9 10  1  0
 10 11  1  0
 10 20  1  0
 10 36  1  0
 11 12  2  0
 11 13  1  0
 13 14  1  0
 14 15  2  0
 14 19  1  0
 15 16  1  0
 16 17  2  0
 17 18  1  0
 18 19  2  0
 20 21  1  0
 21 22  1  0
 22 23  1  0
 22 35  1  0
 23 24  2  0
 23 34  1  0
 24 25  1  0
 25 26  2  0
 26 27  1  0
 26 33  1  0
 27 28  1  0
 27 31  1  0
 27 32  1  0
 28 29  2  0
 28 30  1  0
 31 32  1  0
 33 34  2  0
 35 36  1  0
  1 37  1  0
  1 38  1  0
  1 39  1  0
  2 40  1  0
  3 41  1  0
  3 42  1  0
  3 43  1  0
  5 44  1  0
  6 45  1  0
  7 46  1  0
  8 47  1  0
 13 48  1  0
 15 49  1  0
 16 50  1  0
 18 51  1  0
 19 52  1  0
 20 53  1  0
 20 54  1  0
 21 55  1  0
 21 56  1  0
 24 57  1  0
 25 58  1  0
 30 59  1  0
 31 60  1  0
 31 61  1  0
 32 62  1  0
 32 63  1  0
 33 64  1  0
 34 65  1  0
 35 66  1  0
 35 67  1  0
 36 68  1  0
 36 69  1  0
M  END
> <Name>
Molecule

> <AbsoluteEnergy>
79.3902

> <Clean Energy>
200.853

> <ConfNumber>
94

> <MOL_NUMBER>
4

> <RelativeEnergy>
17.8677

> <POSE_NUMBER>
30

> <LibDockScore>
127.7156

> <HotSpots>
-2.53,-21.12,45.98,A,16,6
2.67,-23.92,48.98,A,32,19
-6.33,-26.32,51.98,A,57,34

$$$$
Molecule
  SciTegic05072616053D

 69 73  0  0  0  0            999 V2000
   -6.4787  -22.8488   50.8064 C   0  0  0  1  0  0
   -5.0086  -23.2778   50.5809 C   0  0  0  1  0  0
   -4.0962  -22.1319   51.0686 C   0  0  0  1  0  0
   -4.6594  -23.7364   49.1685 C   0  0  0  1  0  0
   -5.4878  -23.2527   48.1227 C   0  0  0  1  0  0
   -5.2574  -23.5688   46.7834 C   0  0  0  1  0  0
   -4.1800  -24.3803   46.4447 C   0  0  0  1  0  0
   -3.3463  -24.8803   47.4479 C   0  0  0  1  0  0
   -3.5502  -24.6052   48.8294 C   0  0  0  1  0  0
   -2.5385  -25.2341   49.8318 C   0  0  0  1  0  0
   -1.1841  -24.5141   49.6428 C   0  0  0  1  0  0
   -1.0706  -23.7014   48.7498 O   0  0  0  1  0  0
   -0.1046  -24.7688   50.4725 N   0  0  0  1  0  0
    1.2054  -24.3068   50.3441 C   0  0  0  1  0  0
    2.1918  -24.8000   51.2291 C   0  0  0  1  0  0
    3.5232  -24.3515   51.1269 C   0  0  0  1  0  0
    3.8950  -23.4415   50.1843 N   0  0  0  1  0  0
    2.9635  -22.9461   49.3226 C   0  0  0  1  0  0
    1.6165  -23.3522   49.3820 C   0  0  0  1  0  0
   -3.0722  -25.1535   51.3089 C   0  0  0  1  0  0
   -2.5562  -26.1355   52.3866 C   0  0  0  1  0  0
   -2.4304  -27.5222   51.8789 N   0  0  0  1  0  0
   -2.9657  -28.6176   52.5546 C   0  0  0  1  0  0
   -2.7370  -28.7840   53.9400 C   0  0  0  1  0  0
   -3.2779  -29.8769   54.6339 C   0  0  0  1  0  0
   -4.0474  -30.8359   53.9535 C   0  0  0  1  0  0
   -4.6238  -32.0190   54.7003 C   0  0  0  1  0  0
   -5.8376  -31.6847   55.5707 C   0  0  0  1  0  0
   -6.2700  -30.5542   55.5993 O   0  0  0  1  0  0
   -6.4035  -32.6591   56.2855 O   0  0  0  1  0  0
   -3.6620  -33.0928   55.1899 C   0  0  0  1  0  0
   -4.5843  -33.3859   54.0307 C   0  0  0  1  0  0
   -4.2808  -30.6862   52.5748 C   0  0  0  1  0  0
   -3.7472  -29.5867   51.8821 C   0  0  0  1  0  0
   -1.6843  -27.6360   50.6049 C   0  0  0  1  0  0
   -2.3293  -26.7646   49.5198 C   0  0  0  1  0  0
   -6.6983  -21.9455   50.2372 H   0  0
   -6.6597  -22.6696   51.8662 H   0  0
   -7.1358  -23.6492   50.4662 H   0  0
   -4.8451  -24.1830   51.1656 H   0  0
   -4.2594  -21.9474   52.1304 H   0  0
   -4.2980  -21.2233   50.5013 H   0  0
   -3.0561  -22.4201   50.9159 H   0  0
   -6.3331  -22.6122   48.3744 H   0  0
   -5.9178  -23.1821   46.0073 H   0  0
   -3.9868  -24.6253   45.4003 H   0  0
   -2.5031  -25.5083   47.1602 H   0  0
   -0.2996  -25.3975   51.3161 H   0  0
    1.9211  -25.5293   51.9926 H   0  0
    4.2718  -24.7410   51.8169 H   0  0
    3.2678  -22.2188   48.5699 H   0  0
    0.8897  -22.9316   48.6871 H   0  0
   -2.8935  -24.1415   51.6721 H   0  0
   -4.1582  -25.2409   51.2762 H   0  0
   -1.5816  -25.7976   52.7389 H   0  0
   -3.2428  -26.1295   53.2332 H   0  0
   -2.1320  -28.0530   54.4764 H   0  0
   -3.1007  -29.9824   55.7042 H   0  0
   -5.6310  -33.0476   56.8812 H   0  0
   -4.0148  -33.5555   56.1116 H   0  0
   -2.6431  -32.8992   54.8545 H   0  0
   -4.0567  -33.3492   53.0776 H   0  0
   -5.4290  -34.0040   54.3348 H   0  0
   -4.8779  -31.4260   52.0417 H   0  0
   -3.9374  -29.4789   50.8143 H   0  0
   -1.6840  -28.6759   50.2781 H   0  0
   -0.6547  -27.3138   50.7604 H   0  0
   -1.7273  -26.8503   48.6152 H   0  0
   -3.2979  -27.1974   49.2696 H   0  0
  1  2  1  0
  2  3  1  0
  2  4  1  0
  4  5  2  0
  4  9  1  0
  5  6  1  0
  6  7  2  0
  7  8  1  0
  8  9  2  0
  9 10  1  0
 10 11  1  0
 10 20  1  0
 10 36  1  0
 11 12  2  0
 11 13  1  0
 13 14  1  0
 14 15  2  0
 14 19  1  0
 15 16  1  0
 16 17  2  0
 17 18  1  0
 18 19  2  0
 20 21  1  0
 21 22  1  0
 22 23  1  0
 22 35  1  0
 23 24  2  0
 23 34  1  0
 24 25  1  0
 25 26  2  0
 26 27  1  0
 26 33  1  0
 27 28  1  0
 27 31  1  0
 27 32  1  0
 28 29  2  0
 28 30  1  0
 31 32  1  0
 33 34  2  0
 35 36  1  0
  1 37  1  0
  1 38  1  0
  1 39  1  0
  2 40  1  0
  3 41  1  0
  3 42  1  0
  3 43  1  0
  5 44  1  0
  6 45  1  0
  7 46  1  0
  8 47  1  0
 13 48  1  0
 15 49  1  0
 16 50  1  0
 18 51  1  0
 19 52  1  0
 20 53  1  0
 20 54  1  0
 21 55  1  0
 21 56  1  0
 24 57  1  0
 25 58  1  0
 30 59  1  0
 31 60  1  0
 31 61  1  0
 32 62  1  0
 32 63  1  0
 33 64  1  0
 34 65  1  0
 35 66  1  0
 35 67  1  0
 36 68  1  0
 36 69  1  0
M  END
> <Name>
Molecule

> <AbsoluteEnergy>
76.676

> <Clean Energy>
200.853

> <ConfNumber>
73

> <MOL_NUMBER>
4

> <RelativeEnergy>
15.1535

> <POSE_NUMBER>
31

> <LibDockScore>
127.1449

> <HotSpots>
-2.53,-22.32,48.19,A,29,3
-4.53,-24.52,46.19,A,17,5
-4.13,-31.12,56.59,A,79,31

$$$$
Molecule
  SciTegic05072616053D

 69 73  0  0  0  0            999 V2000
   -0.4210  -23.3646   48.5598 C   0  0  0  1  0  0
   -0.2695  -24.8019   49.0914 C   0  0  0  1  0  0
    0.3323  -25.7393   48.0284 C   0  0  0  1  0  0
    0.5084  -24.8461   50.3883 C   0  0  0  1  0  0
    1.8747  -24.4934   50.3235 C   0  0  0  1  0  0
    2.6780  -24.4919   51.4692 C   0  0  0  1  0  0
    2.1247  -24.8424   52.7033 C   0  0  0  1  0  0
    0.7722  -25.1980   52.7895 C   0  0  0  1  0  0
   -0.0676  -25.2180   51.6459 C   0  0  0  1  0  0
   -1.5445  -25.6260   51.7727 C   0  0  0  1  0  0
   -2.4360  -24.4332   51.3655 C   0  0  0  1  0  0
   -1.9310  -23.3368   51.2663 O   0  0  0  1  0  0
   -3.7908  -24.6039   51.1127 N   0  0  0  1  0  0
   -4.7096  -23.6551   50.6740 C   0  0  0  1  0  0
   -6.0837  -23.9861   50.6799 C   0  0  0  1  0  0
   -7.0391  -23.0466   50.2482 C   0  0  0  1  0  0
   -6.6712  -21.8078   49.8171 N   0  0  0  1  0  0
   -5.3531  -21.4664   49.7946 C   0  0  0  1  0  0
   -4.3518  -22.3666   50.2102 C   0  0  0  1  0  0
   -1.7778  -26.9373   50.9276 C   0  0  0  1  0  0
   -2.5190  -28.0924   51.6386 C   0  0  0  1  0  0
   -3.6785  -27.6209   52.4560 N   0  0  0  1  0  0
   -4.9439  -28.2044   52.3704 C   0  0  0  1  0  0
   -5.1076  -29.5240   51.8858 C   0  0  0  1  0  0
   -6.3828  -30.1035   51.7852 C   0  0  0  1  0  0
   -7.5226  -29.3790   52.1736 C   0  0  0  1  0  0
   -8.8948  -29.9985   52.0640 C   0  0  0  1  0  0
   -9.5681  -30.1860   53.4157 C   0  0  0  1  0  0
  -10.3141  -31.1243   53.5761 O   0  0  0  1  0  0
   -9.3257  -29.3173   54.3965 O   0  0  0  1  0  0
   -9.1654  -31.0259   50.9754 C   0  0  0  1  0  0
   -9.7714  -29.6484   50.8721 C   0  0  0  1  0  0
   -7.3750  -28.0719   52.6694 C   0  0  0  1  0  0
   -6.1009  -27.4928   52.7672 C   0  0  0  1  0  0
   -3.4017  -26.4857   53.3858 C   0  0  0  1  0  0
   -1.9624  -25.9566   53.2431 C   0  0  0  1  0  0
   -1.0683  -23.3853   47.6831 H   0  0
    0.5623  -22.9983   48.2649 H   0  0
   -0.8480  -22.7178   49.3262 H   0  0
   -1.2717  -25.1688   49.3130 H   0  0
    1.3092  -25.3528   47.7380 H   0  0
   -0.3214  -25.7399   47.1562 H   0  0
    0.4312  -26.7502   48.4238 H   0  0
    2.3112  -24.2174   49.3636 H   0  0
    3.7308  -24.2185   51.3992 H   0  0
    2.7454  -24.8392   53.5993 H   0  0
    0.3544  -25.4661   53.7599 H   0  0
   -4.1767  -25.5885   51.2757 H   0  0
   -6.4043  -24.9710   51.0195 H   0  0
   -8.0952  -23.3160   50.2591 H   0  0
   -5.0660  -20.4740   49.4471 H   0  0
   -3.3032  -22.0711   50.1746 H   0  0
   -0.8102  -27.3077   50.5890 H   0  0
   -2.3350  -26.6740   50.0285 H   0  0
   -1.8193  -28.6183   52.2882 H   0  0
   -2.8781  -28.7984   50.8898 H   0  0
   -4.2312  -30.0988   51.5863 H   0  0
   -6.4889  -31.1193   51.4044 H   0  0
   -9.5804  -28.3809   53.9956 H   0  0
   -9.8990  -31.7653   51.2966 H   0  0
   -8.3084  -31.1395   50.3116 H   0  0
   -9.2385  -29.0273   50.1521 H   0  0
  -10.8283  -29.6525   51.1386 H   0  0
   -8.2538  -27.5062   52.9790 H   0  0
   -6.0006  -26.4790   53.1548 H   0  0
   -3.5588  -26.8180   54.4119 H   0  0
   -4.1012  -25.6761   53.1777 H   0  0
   -1.8585  -25.0570   53.8498 H   0  0
   -1.2745  -26.7003   53.6453 H   0  0
  1  2  1  0
  2  3  1  0
  2  4  1  0
  4  5  2  0
  4  9  1  0
  5  6  1  0
  6  7  2  0
  7  8  1  0
  8  9  2  0
  9 10  1  0
 10 11  1  0
 10 20  1  0
 10 36  1  0
 11 12  2  0
 11 13  1  0
 13 14  1  0
 14 15  2  0
 14 19  1  0
 15 16  1  0
 16 17  2  0
 17 18  1  0
 18 19  2  0
 20 21  1  0
 21 22  1  0
 22 23  1  0
 22 35  1  0
 23 24  2  0
 23 34  1  0
 24 25  1  0
 25 26  2  0
 26 27  1  0
 26 33  1  0
 27 28  1  0
 27 31  1  0
 27 32  1  0
 28 29  2  0
 28 30  1  0
 31 32  1  0
 33 34  2  0
 35 36  1  0
  1 37  1  0
  1 38  1  0
  1 39  1  0
  2 40  1  0
  3 41  1  0
  3 42  1  0
  3 43  1  0
  5 44  1  0
  6 45  1  0
  7 46  1  0
  8 47  1  0
 13 48  1  0
 15 49  1  0
 16 50  1  0
 18 51  1  0
 19 52  1  0
 20 53  1  0
 20 54  1  0
 21 55  1  0
 21 56  1  0
 24 57  1  0
 25 58  1  0
 30 59  1  0
 31 60  1  0
 31 61  1  0
 32 62  1  0
 32 63  1  0
 33 64  1  0
 34 65  1  0
 35 66  1  0
 35 67  1  0
 36 68  1  0
 36 69  1  0
M  END
> <Name>
Molecule

> <AbsoluteEnergy>
64.0062

> <Clean Energy>
200.853

> <ConfNumber>
6

> <MOL_NUMBER>
4

> <RelativeEnergy>
2.48363

> <POSE_NUMBER>
32

> <LibDockScore>
126.8078

> <HotSpots>
2.27,-24.92,52.19,A,58,7
-5.93,-24.72,51.19,A,53,15
-9.53,-30.12,52.78,A,62,32

$$$$
Molecule
  SciTegic05072616053D

 69 73  0  0  0  0            999 V2000
   -1.0494  -23.3152   48.5900 C   0  0  0  1  0  0
   -0.6632  -24.7375   49.0357 C   0  0  0  1  0  0
   -0.0856  -25.5623   47.8700 C   0  0  0  1  0  0
    0.2579  -24.7187   50.2359 C   0  0  0  1  0  0
    1.5471  -24.1709   50.0428 C   0  0  0  1  0  0
    2.4754  -24.1143   51.0889 C   0  0  0  1  0  0
    2.1297  -24.6052   52.3511 C   0  0  0  1  0  0
    0.8556  -25.1478   52.5658 C   0  0  0  1  0  0
   -0.1105  -25.2166   51.5276 C   0  0  0  1  0  0
   -1.4964  -25.8132   51.8090 C   0  0  0  1  0  0
   -2.5781  -24.7467   51.5304 C   0  0  0  1  0  0
   -2.2814  -23.5835   51.6847 O   0  0  0  1  0  0
   -3.8572  -25.1053   51.1163 N   0  0  0  1  0  0
   -4.9292  -24.2809   50.7793 C   0  0  0  1  0  0
   -4.8346  -22.8788   50.6035 C   0  0  0  1  0  0
   -5.9873  -22.1323   50.2853 C   0  0  0  1  0  0
   -7.2044  -22.7268   50.1260 N   0  0  0  1  0  0
   -7.3178  -24.0771   50.2781 C   0  0  0  1  0  0
   -6.2030  -24.8745   50.5998 C   0  0  0  1  0  0
   -1.7194  -26.1812   53.3128 C   0  0  0  1  0  0
   -3.1123  -26.7817   53.5988 C   0  0  0  1  0  0
   -3.4781  -27.8296   52.5996 N   0  0  0  1  0  0
   -4.7819  -28.3010   52.4598 C   0  0  0  1  0  0
   -5.8900  -27.4858   52.7869 C   0  0  0  1  0  0
   -7.2026  -27.9562   52.6242 C   0  0  0  1  0  0
   -7.4333  -29.2523   52.1335 C   0  0  0  1  0  0
   -8.8447  -29.7620   51.9563 C   0  0  0  1  0  0
   -9.5556  -29.9967   53.2799 C   0  0  0  1  0  0
  -10.7484  -30.2094   53.2836 O   0  0  0  1  0  0
   -8.8410  -29.9604   54.4067 O   0  0  0  1  0  0
   -9.1433  -30.7212   50.8166 C   0  0  0  1  0  0
   -9.6535  -29.3048   50.7520 C   0  0  0  1  0  0
   -6.3412  -30.0749   51.8147 C   0  0  0  1  0  0
   -5.0284  -29.6063   51.9782 C   0  0  0  1  0  0
   -2.3608  -28.3214   51.7430 C   0  0  0  1  0  0
   -1.6290  -27.1678   51.0101 C   0  0  0  1  0  0
   -1.7903  -23.3908   47.7941 H   0  0
   -0.1599  -22.8213   48.1990 H   0  0
   -1.4553  -22.7494   49.4286 H   0  0
   -1.5785  -25.2379   49.3516 H   0  0
    0.7954  -25.0485   47.4853 H   0  0
   -0.8350  -25.6181   47.0805 H   0  0
    0.1809  -26.5642   48.2065 H   0  0
    1.8231  -23.7856   49.0612 H   0  0
    3.4646  -23.6888   50.9198 H   0  0
    2.8505  -24.5660   53.1678 H   0  0
    0.5997  -25.5268   53.5552 H   0  0
   -4.0430  -26.1568   51.0472 H   0  0
   -3.8727  -22.3781   50.7140 H   0  0
   -5.9038  -21.0524   50.1635 H   0  0
   -8.2917  -24.5489   50.1479 H   0  0
   -6.3204  -25.9524   50.7112 H   0  0
   -1.5912  -25.2849   53.9197 H   0  0
   -0.9573  -26.8983   53.6179 H   0  0
   -3.1142  -27.2230   54.5955 H   0  0
   -3.8582  -25.9874   53.5716 H   0  0
   -5.7229  -26.4792   53.1703 H   0  0
   -8.0455  -27.3139   52.8794 H   0  0
   -8.3791  -29.0175   54.4104 H   0  0
   -9.9347  -31.4226   51.0807 H   0  0
   -8.2725  -30.8653   50.1770 H   0  0
   -9.0553  -28.6916   50.0780 H   0  0
  -10.7172  -29.2487   50.9834 H   0  0
   -6.5138  -31.0831   51.4381 H   0  0
   -4.1894  -30.2567   51.7308 H   0  0
   -2.7578  -29.0172   51.0039 H   0  0
   -1.6451  -28.8582   52.3657 H   0  0
   -0.6304  -27.5106   50.7393 H   0  0
   -2.1508  -26.9683   50.0741 H   0  0
  1  2  1  0
  2  3  1  0
  2  4  1  0
  4  5  2  0
  4  9  1  0
  5  6  1  0
  6  7  2  0
  7  8  1  0
  8  9  2  0
  9 10  1  0
 10 11  1  0
 10 20  1  0
 10 36  1  0
 11 12  2  0
 11 13  1  0
 13 14  1  0
 14 15  2  0
 14 19  1  0
 15 16  1  0
 16 17  2  0
 17 18  1  0
 18 19  2  0
 20 21  1  0
 21 22  1  0
 22 23  1  0
 22 35  1  0
 23 24  2  0
 23 34  1  0
 24 25  1  0
 25 26  2  0
 26 27  1  0
 26 33  1  0
 27 28  1  0
 27 31  1  0
 27 32  1  0
 28 29  2  0
 28 30  1  0
 31 32  1  0
 33 34  2  0
 35 36  1  0
  1 37  1  0
  1 38  1  0
  1 39  1  0
  2 40  1  0
  3 41  1  0
  3 42  1  0
  3 43  1  0
  5 44  1  0
  6 45  1  0
  7 46  1  0
  8 47  1  0
 13 48  1  0
 15 49  1  0
 16 50  1  0
 18 51  1  0
 19 52  1  0
 20 53  1  0
 20 54  1  0
 21 55  1  0
 21 56  1  0
 24 57  1  0
 25 58  1  0
 30 59  1  0
 31 60  1  0
 31 61  1  0
 32 62  1  0
 32 63  1  0
 33 64  1  0
 34 65  1  0
 35 66  1  0
 35 67  1  0
 36 68  1  0
 36 69  1  0
M  END
> <Name>
Molecule

> <AbsoluteEnergy>
65.7298

> <Clean Energy>
200.853

> <ConfNumber>
11

> <MOL_NUMBER>
4

> <RelativeEnergy>
4.20728

> <POSE_NUMBER>
33

> <LibDockScore>
126.611

> <HotSpots>
1.67,-24.32,50.98,A,50,7
-8.13,-23.72,49.98,P,34,17
-9.53,-30.12,52.78,A,62,32

$$$$
Molecule
  SciTegic05072616053D

 69 73  0  0  0  0            999 V2000
    1.3851  -26.0834   47.0303 C   0  0  0  1  0  0
    0.7789  -24.8026   47.6334 C   0  0  0  1  0  0
    1.1961  -23.5562   46.8272 C   0  0  0  1  0  0
    1.1068  -24.6760   49.1066 C   0  0  0  1  0  0
    2.4785  -24.6868   49.4474 C   0  0  0  1  0  0
    2.8965  -24.6067   50.7796 C   0  0  0  1  0  0
    1.9465  -24.5147   51.7984 C   0  0  0  1  0  0
    0.5818  -24.4941   51.4839 C   0  0  0  1  0  0
    0.1206  -24.5568   50.1433 C   0  0  0  1  0  0
   -1.3915  -24.5144   49.8502 C   0  0  0  1  0  0
   -1.7225  -23.4419   48.7888 C   0  0  0  1  0  0
   -0.9082  -22.5909   48.5060 O   0  0  0  1  0  0
   -2.9622  -23.4687   48.1692 N   0  0  0  1  0  0
   -3.4617  -22.6641   47.1490 C   0  0  0  1  0  0
   -4.7801  -22.9090   46.7010 C   0  0  0  1  0  0
   -5.3362  -22.1240   45.6756 C   0  0  0  1  0  0
   -4.6265  -21.1202   45.0881 N   0  0  0  1  0  0
   -3.3506  -20.8663   45.4966 C   0  0  0  1  0  0
   -2.7408  -21.6196   46.5200 C   0  0  0  1  0  0
   -2.2614  -24.0957   51.0916 C   0  0  0  1  0  0
   -2.6628  -25.2694   52.0041 C   0  0  0  1  0  0
   -3.5638  -26.1932   51.2614 N   0  0  0  1  0  0
   -4.6842  -26.7775   51.8494 C   0  0  0  1  0  0
   -4.5868  -27.9695   52.6062 C   0  0  0  1  0  0
   -5.7357  -28.5643   53.1571 C   0  0  0  1  0  0
   -7.0008  -27.9837   52.9589 C   0  0  0  1  0  0
   -8.2430  -28.6708   53.4897 C   0  0  0  1  0  0
   -8.8134  -29.6960   52.5064 C   0  0  0  1  0  0
   -9.9726  -30.0413   52.6015 O   0  0  0  1  0  0
   -8.0073  -30.1880   51.5603 O   0  0  0  1  0  0
   -8.3361  -28.9673   54.9783 C   0  0  0  1  0  0
   -9.2027  -27.8884   54.3735 C   0  0  0  1  0  0
   -7.1028  -26.7744   52.2477 C   0  0  0  1  0  0
   -5.9571  -26.1816   51.6964 C   0  0  0  1  0  0
   -3.2278  -26.4544   49.8316 C   0  0  0  1  0  0
   -1.8132  -25.9744   49.4309 C   0  0  0  1  0  0
    2.4713  -25.9931   47.0350 H   0  0
    1.0409  -26.1832   46.0009 H   0  0
    1.0812  -26.9545   47.6108 H   0  0
   -0.3062  -24.8768   47.5617 H   0  0
    0.8532  -23.6726   45.7991 H   0  0
    2.2836  -23.4825   46.8332 H   0  0
    0.7595  -22.6591   47.2662 H   0  0
    3.2251  -24.7590   48.6565 H   0  0
    3.9593  -24.6161   51.0214 H   0  0
    2.2668  -24.4589   52.8388 H   0  0
   -0.1468  -24.4280   52.2919 H   0  0
   -3.6350  -24.2192   48.5284 H   0  0
   -5.3673  -23.7089   47.1520 H   0  0
   -6.3554  -22.3224   45.3441 H   0  0
   -2.7893  -20.0622   45.0207 H   0  0
   -1.7182  -21.3992   46.8263 H   0  0
   -1.7046  -23.3679   51.6819 H   0  0
   -3.1666  -23.6023   50.7377 H   0  0
   -1.7686  -25.8086   52.3168 H   0  0
   -3.1813  -24.8865   52.8831 H   0  0
   -3.6119  -28.4309   52.7635 H   0  0
   -5.6450  -29.4803   53.7409 H   0  0
   -7.1924  -30.6019   52.0772 H   0  0
   -7.4917  -28.5461   55.5239 H   0  0
   -8.9030  -29.8784   55.1696 H   0  0
  -10.2313  -28.2248   54.2431 H   0  0
   -8.8193  -26.8926   54.5960 H   0  0
   -8.0747  -26.2966   52.1246 H   0  0
   -6.0496  -25.2478   51.1419 H   0  0
   -3.3037  -27.5251   49.6422 H   0  0
   -3.9618  -25.9545   49.1996 H   0  0
   -1.7196  -26.0597   48.3483 H   0  0
   -1.0873  -26.6735   49.8461 H   0  0
  1  2  1  0
  2  3  1  0
  2  4  1  0
  4  5  2  0
  4  9  1  0
  5  6  1  0
  6  7  2  0
  7  8  1  0
  8  9  2  0
  9 10  1  0
 10 11  1  0
 10 20  1  0
 10 36  1  0
 11 12  2  0
 11 13  1  0
 13 14  1  0
 14 15  2  0
 14 19  1  0
 15 16  1  0
 16 17  2  0
 17 18  1  0
 18 19  2  0
 20 21  1  0
 21 22  1  0
 22 23  1  0
 22 35  1  0
 23 24  2  0
 23 34  1  0
 24 25  1  0
 25 26  2  0
 26 27  1  0
 26 33  1  0
 27 28  1  0
 27 31  1  0
 27 32  1  0
 28 29  2  0
 28 30  1  0
 31 32  1  0
 33 34  2  0
 35 36  1  0
  1 37  1  0
  1 38  1  0
  1 39  1  0
  2 40  1  0
  3 41  1  0
  3 42  1  0
  3 43  1  0
  5 44  1  0
  6 45  1  0
  7 46  1  0
  8 47  1  0
 13 48  1  0
 15 49  1  0
 16 50  1  0
 18 51  1  0
 19 52  1  0
 20 53  1  0
 20 54  1  0
 21 55  1  0
 21 56  1  0
 24 57  1  0
 25 58  1  0
 30 59  1  0
 31 60  1  0
 31 61  1  0
 32 62  1  0
 32 63  1  0
 33 64  1  0
 34 65  1  0
 35 66  1  0
 35 67  1  0
 36 68  1  0
 36 69  1  0
M  END
> <Name>
Molecule

> <AbsoluteEnergy>
68.387

> <Clean Energy>
200.853

> <ConfNumber>
25

> <MOL_NUMBER>
4

> <RelativeEnergy>
6.86444

> <POSE_NUMBER>
34

> <LibDockScore>
126.575

> <HotSpots>
1.27,-23.52,47.59,A,27,3
-4.93,-23.52,47.59,A,26,15
-9.53,-30.12,52.78,A,62,32

$$$$
Molecule
  SciTegic05072616053D

 69 73  0  0  0  0            999 V2000
    0.7291  -25.0341   46.3389 C   0  0  0  1  0  0
    0.5714  -25.6716   47.7325 C   0  0  0  1  0  0
    1.1894  -27.0811   47.7820 C   0  0  0  1  0  0
    1.1198  -24.7858   48.8287 C   0  0  0  1  0  0
    2.4699  -24.3809   48.7114 C   0  0  0  1  0  0
    3.0640  -23.5550   49.6711 C   0  0  0  1  0  0
    2.3172  -23.1210   50.7697 C   0  0  0  1  0  0
    0.9763  -23.5130   50.9085 C   0  0  0  1  0  0
    0.3414  -24.3490   49.9517 C   0  0  0  1  0  0
   -1.1379  -24.7523   50.1147 C   0  0  0  1  0  0
   -1.9321  -24.4490   48.8219 C   0  0  0  1  0  0
   -2.5974  -25.3468   48.3565 O   0  0  0  1  0  0
   -1.8813  -23.1942   48.2029 N   0  0  0  1  0  0
   -2.7573  -22.6585   47.2565 C   0  0  0  1  0  0
   -4.0133  -23.2229   46.9362 C   0  0  0  1  0  0
   -4.8256  -22.6251   45.9519 C   0  0  0  1  0  0
   -4.4356  -21.5005   45.2862 N   0  0  0  1  0  0
   -3.2371  -20.9277   45.5874 C   0  0  0  1  0  0
   -2.3856  -21.4766   46.5665 C   0  0  0  1  0  0
   -1.2250  -26.2754   50.5401 C   0  0  0  1  0  0
   -2.0221  -26.6060   51.8257 C   0  0  0  1  0  0
   -3.3600  -25.9565   51.8091 N   0  0  0  1  0  0
   -4.5479  -26.6617   52.0538 C   0  0  0  1  0  0
   -5.7955  -26.0454   51.8076 C   0  0  0  1  0  0
   -7.0014  -26.7458   51.9926 C   0  0  0  1  0  0
   -6.9990  -28.0958   52.4002 C   0  0  0  1  0  0
   -8.3002  -28.8856   52.4760 C   0  0  0  1  0  0
   -9.1217  -28.7448   53.7645 C   0  0  0  1  0  0
   -9.9071  -29.6136   54.0761 O   0  0  0  1  0  0
   -9.0048  -27.6516   54.5207 O   0  0  0  1  0  0
   -8.3038  -30.2461   51.7915 C   0  0  0  1  0  0
   -9.1124  -29.1172   51.2067 C   0  0  0  1  0  0
   -5.7674  -28.7062   52.7063 C   0  0  0  1  0  0
   -4.5554  -27.9989   52.5382 C   0  0  0  1  0  0
   -3.3423  -24.4930   51.4831 C   0  0  0  1  0  0
   -1.9086  -23.9532   51.2174 C   0  0  0  1  0  0
    0.2374  -25.6739   45.6061 H   0  0
    1.7913  -24.9752   46.1016 H   0  0
    0.2861  -24.0383   46.3239 H   0  0
   -0.4982  -25.7755   47.9147 H   0  0
    2.2479  -27.0057   47.5330 H   0  0
    0.6940  -27.7044   47.0376 H   0  0
    1.0680  -27.5150   48.7745 H   0  0
    3.0578  -24.7185   47.8579 H   0  0
    4.1051  -23.2511   49.5626 H   0  0
    2.7765  -22.4772   51.5199 H   0  0
    0.4082  -23.1672   51.7721 H   0  0
   -1.0661  -22.5645   48.4923 H   0  0
   -4.3537  -24.1213   47.4511 H   0  0
   -5.7909  -23.0733   45.7165 H   0  0
   -2.9300  -20.0249   45.0594 H   0  0
   -1.4369  -20.9907   46.7947 H   0  0
   -0.2114  -26.6579   50.6599 H   0  0
   -1.6609  -26.8380   49.7146 H   0  0
   -1.4652  -26.2565   52.6951 H   0  0
   -2.1490  -27.6859   51.9024 H   0  0
   -5.8239  -25.0098   51.4686 H   0  0
   -7.9502  -26.2383   51.8186 H   0  0
   -9.2194  -26.8571   53.8686 H   0  0
   -8.9333  -30.9594   52.3235 H   0  0
   -7.3830  -30.4141   51.2329 H   0  0
   -8.6243  -28.6809   50.3352 H   0  0
  -10.1744  -29.2253   51.4272 H   0  0
   -5.7487  -29.7316   53.0755 H   0  0
   -3.6116  -28.4859   52.7836 H   0  0
   -3.7818  -23.9389   52.3125 H   0  0
   -3.9563  -24.3193   50.5994 H   0  0
   -1.9760  -22.9079   50.9157 H   0  0
   -1.3392  -23.9932   52.1460 H   0  0
  1  2  1  0
  2  3  1  0
  2  4  1  0
  4  5  2  0
  4  9  1  0
  5  6  1  0
  6  7  2  0
  7  8  1  0
  8  9  2  0
  9 10  1  0
 10 11  1  0
 10 20  1  0
 10 36  1  0
 11 12  2  0
 11 13  1  0
 13 14  1  0
 14 15  2  0
 14 19  1  0
 15 16  1  0
 16 17  2  0
 17 18  1  0
 18 19  2  0
 20 21  1  0
 21 22  1  0
 22 23  1  0
 22 35  1  0
 23 24  2  0
 23 34  1  0
 24 25  1  0
 25 26  2  0
 26 27  1  0
 26 33  1  0
 27 28  1  0
 27 31  1  0
 27 32  1  0
 28 29  2  0
 28 30  1  0
 31 32  1  0
 33 34  2  0
 35 36  1  0
  1 37  1  0
  1 38  1  0
  1 39  1  0
  2 40  1  0
  3 41  1  0
  3 42  1  0
  3 43  1  0
  5 44  1  0
  6 45  1  0
  7 46  1  0
  8 47  1  0
 13 48  1  0
 15 49  1  0
 16 50  1  0
 18 51  1  0
 19 52  1  0
 20 53  1  0
 20 54  1  0
 21 55  1  0
 21 56  1  0
 24 57  1  0
 25 58  1  0
 30 59  1  0
 31 60  1  0
 31 61  1  0
 32 62  1  0
 32 63  1  0
 33 64  1  0
 34 65  1  0
 35 66  1  0
 35 67  1  0
 36 68  1  0
 36 69  1  0
M  END
> <Name>
Molecule

> <AbsoluteEnergy>
67.6699

> <Clean Energy>
200.853

> <ConfNumber>
18

> <MOL_NUMBER>
4

> <RelativeEnergy>
6.14736

> <POSE_NUMBER>
35

> <LibDockScore>
126.5443

> <HotSpots>
0.87,-24.32,52.78,A,63,8
-1.73,-21.72,46.78,A,24,18
-9.33,-29.92,51.19,A,52,32

$$$$
Molecule
  SciTegic05072616053D

 69 73  0  0  0  0            999 V2000
   -5.4499  -24.5958   46.2852 C   0  0  0  1  0  0
   -4.9291  -23.6368   47.3723 C   0  0  0  1  0  0
   -6.0904  -22.8698   48.0318 C   0  0  0  1  0  0
   -3.8433  -22.7061   46.8677 C   0  0  0  1  0  0
   -4.2098  -21.8679   45.7942 C   0  0  0  1  0  0
   -3.3218  -20.9197   45.2758 C   0  0  0  1  0  0
   -2.0505  -20.7816   45.8382 C   0  0  0  1  0  0
   -1.6596  -21.6091   46.9023 C   0  0  0  1  0  0
   -2.5141  -22.6272   47.4161 C   0  0  0  1  0  0
   -2.0434  -23.5899   48.5324 C   0  0  0  1  0  0
   -0.5121  -23.8587   48.6316 C   0  0  0  1  0  0
    0.1780  -23.8635   47.6360 O   0  0  0  1  0  0
    0.0765  -24.1378   49.8633 N   0  0  0  1  0  0
    1.4266  -24.1103   50.2004 C   0  0  0  1  0  0
    1.8174  -24.6267   51.4591 C   0  0  0  1  0  0
    3.1724  -24.6217   51.8323 C   0  0  0  1  0  0
    4.1342  -24.1276   51.0033 N   0  0  0  1  0  0
    3.7851  -23.6183   49.7874 C   0  0  0  1  0  0
    2.4425  -23.5915   49.3605 C   0  0  0  1  0  0
   -2.5448  -25.0366   48.2207 C   0  0  0  1  0  0
   -2.6397  -25.9435   49.4477 C   0  0  0  1  0  0
   -3.5442  -25.3681   50.4734 N   0  0  0  1  0  0
   -4.4802  -26.1854   51.0924 C   0  0  0  1  0  0
   -5.6852  -25.6673   51.6194 C   0  0  0  1  0  0
   -6.6251  -26.5262   52.2152 C   0  0  0  1  0  0
   -6.3800  -27.9122   52.2859 C   0  0  0  1  0  0
   -7.4126  -28.8392   52.8849 C   0  0  0  1  0  0
   -7.6626  -28.6196   54.3693 C   0  0  0  1  0  0
   -8.6504  -28.0126   54.7216 O   0  0  0  1  0  0
   -6.7980  -29.1147   55.2534 O   0  0  0  1  0  0
   -8.5864  -29.2836   52.0262 C   0  0  0  1  0  0
   -7.4968  -30.2692   52.3735 C   0  0  0  1  0  0
   -5.1722  -28.4281   51.7835 C   0  0  0  1  0  0
   -4.2299  -27.5725   51.1925 C   0  0  0  1  0  0
   -3.4369  -23.9197   50.8382 C   0  0  0  1  0  0
   -2.5906  -23.0135   49.8982 C   0  0  0  1  0  0
   -5.9800  -24.0169   45.5289 H   0  0
   -6.1414  -25.3040   46.7417 H   0  0
   -4.6185  -25.1316   45.8272 H   0  0
   -4.4567  -24.2512   48.1388 H   0  0
   -6.7783  -23.5877   48.4786 H   0  0
   -6.6169  -22.3005   47.2658 H   0  0
   -5.7081  -22.1956   48.7982 H   0  0
   -5.2052  -21.9609   45.3598 H   0  0
   -3.6204  -20.2913   44.4367 H   0  0
   -1.3619  -20.0309   45.4505 H   0  0
   -0.6749  -21.4691   47.3482 H   0  0
   -0.5955  -24.4079   50.6509 H   0  0
    1.0667  -25.0286   52.1396 H   0  0
    3.4597  -25.0213   52.8049 H   0  0
    4.5612  -23.2235   49.1317 H   0  0
    2.1865  -23.1729   48.3872 H   0  0
   -1.8703  -25.4955   47.4979 H   0  0
   -3.5279  -24.9752   47.7540 H   0  0
   -1.6466  -26.0721   49.8781 H   0  0
   -3.0177  -26.9198   49.1443 H   0  0
   -5.8864  -24.5975   51.5636 H   0  0
   -7.5489  -26.1178   52.6249 H   0  0
   -5.8686  -28.7082   54.9823 H   0  0
   -8.4916  -28.9238   51.0017 H   0  0
   -9.4818  -29.4457   52.6264 H   0  0
   -7.8118  -30.9569   53.1583 H   0  0
   -6.8208  -30.4339   51.5344 H   0  0
   -4.9672  -29.4964   51.8534 H   0  0
   -3.2961  -27.9818   50.8070 H   0  0
   -3.0240  -23.8502   51.8446 H   0  0
   -4.4442  -23.5073   50.8969 H   0  0
   -3.1800  -22.1242   49.6751 H   0  0
   -1.7397  -22.6439   50.4704 H   0  0
  1  2  1  0
  2  3  1  0
  2  4  1  0
  4  5  2  0
  4  9  1  0
  5  6  1  0
  6  7  2  0
  7  8  1  0
  8  9  2  0
  9 10  1  0
 10 11  1  0
 10 20  1  0
 10 36  1  0
 11 12  2  0
 11 13  1  0
 13 14  1  0
 14 15  2  0
 14 19  1  0
 15 16  1  0
 16 17  2  0
 17 18  1  0
 18 19  2  0
 20 21  1  0
 21 22  1  0
 22 23  1  0
 22 35  1  0
 23 24  2  0
 23 34  1  0
 24 25  1  0
 25 26  2  0
 26 27  1  0
 26 33  1  0
 27 28  1  0
 27 31  1  0
 27 32  1  0
 28 29  2  0
 28 30  1  0
 31 32  1  0
 33 34  2  0
 35 36  1  0
  1 37  1  0
  1 38  1  0
  1 39  1  0
  2 40  1  0
  3 41  1  0
  3 42  1  0
  3 43  1  0
  5 44  1  0
  6 45  1  0
  7 46  1  0
  8 47  1  0
 13 48  1  0
 15 49  1  0
 16 50  1  0
 18 51  1  0
 19 52  1  0
 20 53  1  0
 20 54  1  0
 21 55  1  0
 21 56  1  0
 24 57  1  0
 25 58  1  0
 30 59  1  0
 31 60  1  0
 31 61  1  0
 32 62  1  0
 32 63  1  0
 33 64  1  0
 34 65  1  0
 35 66  1  0
 35 67  1  0
 36 68  1  0
 36 69  1  0
M  END
> <Name>
Molecule

> <AbsoluteEnergy>
78.9179

> <Clean Energy>
200.853

> <ConfNumber>
88

> <MOL_NUMBER>
4

> <RelativeEnergy>
17.3954

> <POSE_NUMBER>
36

> <LibDockScore>
126.4808

> <HotSpots>
-2.53,-21.12,45.98,A,16,8
3.07,-24.52,50.38,A,43,16
-6.53,-30.72,51.78,A,56,32

$$$$
Molecule
  SciTegic05072616053D

 69 73  0  0  0  0            999 V2000
   -0.9364  -23.4629   48.6561 C   0  0  0  1  0  0
   -0.5962  -24.8694   49.1824 C   0  0  0  1  0  0
    0.0107  -25.7582   48.0804 C   0  0  0  1  0  0
    0.2769  -24.8106   50.4167 C   0  0  0  1  0  0
    1.5704  -24.2619   50.2581 C   0  0  0  1  0  0
    2.4567  -24.1698   51.3377 C   0  0  0  1  0  0
    2.0636  -24.6253   52.5993 C   0  0  0  1  0  0
    0.7843  -25.1680   52.7799 C   0  0  0  1  0  0
   -0.1400  -25.2723   51.7071 C   0  0  0  1  0  0
   -1.5334  -25.8676   51.9514 C   0  0  0  1  0  0
   -2.6064  -24.8010   51.6416 C   0  0  0  1  0  0
   -2.2850  -23.6361   51.7095 O   0  0  0  1  0  0
   -3.9053  -25.1613   51.2961 N   0  0  0  1  0  0
   -4.9567  -24.3457   50.8814 C   0  0  0  1  0  0
   -4.8364  -22.9598   50.6161 C   0  0  0  1  0  0
   -5.9700  -22.2197   50.2233 C   0  0  0  1  0  0
   -7.1925  -22.8060   50.0757 N   0  0  0  1  0  0
   -7.3303  -24.1416   50.3134 C   0  0  0  1  0  0
   -6.2353  -24.9318   50.7122 C   0  0  0  1  0  0
   -1.7977  -26.2330   53.4492 C   0  0  0  1  0  0
   -3.1983  -26.8323   53.6979 C   0  0  0  1  0  0
   -3.5372  -27.8816   52.6909 N   0  0  0  1  0  0
   -4.8369  -28.3525   52.5162 C   0  0  0  1  0  0
   -5.9531  -27.5374   52.8148 C   0  0  0  1  0  0
   -7.2611  -28.0073   52.6170 C   0  0  0  1  0  0
   -7.4791  -29.3028   52.1191 C   0  0  0  1  0  0
   -8.8854  -29.8119   51.9042 C   0  0  0  1  0  0
   -9.6072  -30.1135   53.2082 C   0  0  0  1  0  0
  -10.8187  -30.1196   53.2285 O   0  0  0  1  0  0
   -8.8811  -30.3634   54.2999 O   0  0  0  1  0  0
   -9.1671  -30.7176   50.7174 C   0  0  0  1  0  0
   -9.6858  -29.3028   50.7152 C   0  0  0  1  0  0
   -6.3792  -30.1253   51.8284 C   0  0  0  1  0  0
   -5.0710  -29.6573   52.0269 C   0  0  0  1  0  0
   -2.3972  -28.3755   51.8659 C   0  0  0  1  0  0
   -1.6449  -27.2235   51.1514 C   0  0  0  1  0  0
   -1.6466  -23.5626   47.8353 H   0  0
   -0.0226  -23.0038   48.2790 H   0  0
   -1.3639  -22.8511   49.4505 H   0  0
   -1.5330  -25.3381   49.4839 H   0  0
    0.9162  -25.2789   47.7083 H   0  0
   -0.7079  -25.8377   47.2646 H   0  0
    0.2439  -26.7478   48.4734 H   0  0
    1.8831  -23.9041   49.2772 H   0  0
    3.4500  -23.7443   51.1950 H   0  0
    2.7516  -24.5584   53.4421 H   0  0
    0.4912  -25.5191   53.7693 H   0  0
   -4.1270  -26.2063   51.3571 H   0  0
   -3.8695  -22.4665   50.7154 H   0  0
   -5.8669  -21.1515   50.0326 H   0  0
   -8.3084  -24.6072   50.1922 H   0  0
   -6.3719  -25.9983   50.8914 H   0  0
   -1.6856  -25.3358   54.0579 H   0  0
   -1.0447  -26.9500   53.7762 H   0  0
   -3.2278  -27.2720   54.6949 H   0  0
   -3.9427  -26.0376   53.6490 H   0  0
   -5.7959  -26.5313   53.2036 H   0  0
   -8.1102  -27.3650   52.8505 H   0  0
   -8.2630  -29.5230   54.4187 H   0  0
   -9.9564  -31.4355   50.9402 H   0  0
   -8.2895  -30.8259   50.0801 H   0  0
   -9.0853  -28.6546   50.0769 H   0  0
  -10.7519  -29.2642   50.9387 H   0  0
   -6.5421  -31.1331   51.4464 H   0  0
   -4.2260  -30.3077   51.8011 H   0  0
   -2.7744  -29.0723   51.1173 H   0  0
   -1.6991  -28.9117   52.5087 H   0  0
   -0.6394  -27.5673   50.9086 H   0  0
   -2.1408  -27.0253   50.2012 H   0  0
  1  2  1  0
  2  3  1  0
  2  4  1  0
  4  5  2  0
  4  9  1  0
  5  6  1  0
  6  7  2  0
  7  8  1  0
  8  9  2  0
  9 10  1  0
 10 11  1  0
 10 20  1  0
 10 36  1  0
 11 12  2  0
 11 13  1  0
 13 14  1  0
 14 15  2  0
 14 19  1  0
 15 16  1  0
 16 17  2  0
 17 18  1  0
 18 19  2  0
 20 21  1  0
 21 22  1  0
 22 23  1  0
 22 35  1  0
 23 24  2  0
 23 34  1  0
 24 25  1  0
 25 26  2  0
 26 27  1  0
 26 33  1  0
 27 28  1  0
 27 31  1  0
 27 32  1  0
 28 29  2  0
 28 30  1  0
 31 32  1  0
 33 34  2  0
 35 36  1  0
  1 37  1  0
  1 38  1  0
  1 39  1  0
  2 40  1  0
  3 41  1  0
  3 42  1  0
  3 43  1  0
  5 44  1  0
  6 45  1  0
  7 46  1  0
  8 47  1  0
 13 48  1  0
 15 49  1  0
 16 50  1  0
 18 51  1  0
 19 52  1  0
 20 53  1  0
 20 54  1  0
 21 55  1  0
 21 56  1  0
 24 57  1  0
 25 58  1  0
 30 59  1  0
 31 60  1  0
 31 61  1  0
 32 62  1  0
 32 63  1  0
 33 64  1  0
 34 65  1  0
 35 66  1  0
 35 67  1  0
 36 68  1  0
 36 69  1  0
M  END
> <Name>
Molecule

> <AbsoluteEnergy>
65.7298

> <Clean Energy>
200.853

> <ConfNumber>
11

> <MOL_NUMBER>
4

> <RelativeEnergy>
4.20728

> <POSE_NUMBER>
37

> <LibDockScore>
126.3113

> <HotSpots>
2.27,-24.92,52.19,A,58,6
-5.13,-23.32,51.38,A,54,15
-6.53,-30.72,51.78,A,56,33

$$$$
Molecule
  SciTegic05072616053D

 69 73  0  0  0  0            999 V2000
   -0.3381  -23.2535   48.0863 C   0  0  0  1  0  0
   -0.1156  -24.6788   48.6286 C   0  0  0  1  0  0
    0.4357  -25.6203   47.5425 C   0  0  0  1  0  0
    0.7523  -24.6820   49.8675 C   0  0  0  1  0  0
    2.1040  -24.3072   49.6998 C   0  0  0  1  0  0
    2.9846  -24.2616   50.7851 C   0  0  0  1  0  0
    2.5266  -24.5940   52.0625 C   0  0  0  1  0  0
    1.1919  -24.9758   52.2507 C   0  0  0  1  0  0
    0.2740  -25.0366   51.1700 C   0  0  0  1  0  0
   -1.1819  -25.4686   51.4141 C   0  0  0  1  0  0
   -2.1308  -24.3561   50.9155 C   0  0  0  1  0  0
   -1.6978  -23.2291   50.8266 O   0  0  0  1  0  0
   -3.4461  -24.6373   50.5660 N   0  0  0  1  0  0
   -4.5294  -23.7663   50.4515 C   0  0  0  1  0  0
   -5.8305  -24.3180   50.3848 C   0  0  0  1  0  0
   -6.9539  -23.4774   50.2711 C   0  0  0  1  0  0
   -6.8229  -22.1238   50.2231 N   0  0  0  1  0  0
   -5.5824  -21.5649   50.2852 C   0  0  0  1  0  0
   -4.4233  -22.3555   50.3985 C   0  0  0  1  0  0
   -1.5201  -25.6314   52.9302 C   0  0  0  1  0  0
   -2.9488  -26.1350   53.2007 C   0  0  0  1  0  0
   -3.2736  -27.3632   52.4163 N   0  0  0  1  0  0
   -4.5457  -27.9395   52.4621 C   0  0  0  1  0  0
   -5.6888  -27.1536   52.7455 C   0  0  0  1  0  0
   -6.9676  -27.7292   52.7990 C   0  0  0  1  0  0
   -7.1352  -29.1056   52.5738 C   0  0  0  1  0  0
   -8.5117  -29.7222   52.6419 C   0  0  0  1  0  0
   -8.9938  -30.2475   51.3003 C   0  0  0  1  0  0
   -9.8252  -29.6197   50.6860 O   0  0  0  1  0  0
   -8.4880  -31.3894   50.8353 O   0  0  0  1  0  0
   -9.5413  -29.1315   53.5949 C   0  0  0  1  0  0
   -8.9279  -30.4764   53.8960 C   0  0  0  1  0  0
   -6.0124  -29.8993   52.2861 C   0  0  0  1  0  0
   -4.7320  -29.3244   52.2349 C   0  0  0  1  0  0
   -2.1561  -27.9366   51.6034 C   0  0  0  1  0  0
   -1.4094  -26.8805   50.7507 C   0  0  0  1  0  0
   -1.0423  -23.3046   47.2559 H   0  0
    0.6139  -22.8696   47.7195 H   0  0
   -0.7281  -22.6038   48.8698 H   0  0
   -1.0914  -25.0644   48.9240 H   0  0
    1.3809  -25.2159   47.1804 H   0  0
   -0.2752  -25.6509   46.7168 H   0  0
    0.5857  -26.6217   47.9460 H   0  0
    2.4675  -24.0486   48.7053 H   0  0
    4.0236  -23.9681   50.6352 H   0  0
    3.2077  -24.5563   52.9126 H   0  0
    0.8495  -25.2328   53.2531 H   0  0
   -3.6571  -25.6649   50.3555 H   0  0
   -5.9637  -25.3992   50.4216 H   0  0
   -7.9488  -23.9197   50.2205 H   0  0
   -5.4849  -20.4800   50.2462 H   0  0
   -3.4431  -21.8811   50.4455 H   0  0
   -1.3873  -24.6702   53.4268 H   0  0
   -0.8117  -26.3297   53.3760 H   0  0
   -3.0546  -26.3538   54.2632 H   0  0
   -3.6596  -25.3502   52.9419 H   0  0
   -5.5738  -26.0846   52.9250 H   0  0
   -7.8347  -27.1054   53.0163 H   0  0
   -8.6762  -32.0985   51.5864 H   0  0
  -10.5530  -29.2295   53.2013 H   0  0
   -9.1085  -28.3442   54.2121 H   0  0
   -8.1685  -30.4072   54.6749 H   0  0
   -9.6120  -31.2923   53.6628 H   0  0
   -6.1355  -30.9665   52.1017 H   0  0
   -3.8691  -29.9537   52.0170 H   0  0
   -2.5580  -28.7041   50.9419 H   0  0
   -1.4434  -28.4172   52.2736 H   0  0
   -0.4394  -27.2907   50.4698 H   0  0
   -1.9599  -26.7396   49.8205 H   0  0
  1  2  1  0
  2  3  1  0
  2  4  1  0
  4  5  2  0
  4  9  1  0
  5  6  1  0
  6  7  2  0
  7  8  1  0
  8  9  2  0
  9 10  1  0
 10 11  1  0
 10 20  1  0
 10 36  1  0
 11 12  2  0
 11 13  1  0
 13 14  1  0
 14 15  2  0
 14 19  1  0
 15 16  1  0
 16 17  2  0
 17 18  1  0
 18 19  2  0
 20 21  1  0
 21 22  1  0
 22 23  1  0
 22 35  1  0
 23 24  2  0
 23 34  1  0
 24 25  1  0
 25 26  2  0
 26 27  1  0
 26 33  1  0
 27 28  1  0
 27 31  1  0
 27 32  1  0
 28 29  2  0
 28 30  1  0
 31 32  1  0
 33 34  2  0
 35 36  1  0
  1 37  1  0
  1 38  1  0
  1 39  1  0
  2 40  1  0
  3 41  1  0
  3 42  1  0
  3 43  1  0
  5 44  1  0
  6 45  1  0
  7 46  1  0
  8 47  1  0
 13 48  1  0
 15 49  1  0
 16 50  1  0
 18 51  1  0
 19 52  1  0
 20 53  1  0
 20 54  1  0
 21 55  1  0
 21 56  1  0
 24 57  1  0
 25 58  1  0
 30 59  1  0
 31 60  1  0
 31 61  1  0
 32 62  1  0
 32 63  1  0
 33 64  1  0
 34 65  1  0
 35 66  1  0
 35 67  1  0
 36 68  1  0
 36 69  1  0
M  END
> <Name>
Molecule

> <AbsoluteEnergy>
64.436

> <Clean Energy>
200.853

> <ConfNumber>
7

> <MOL_NUMBER>
4

> <RelativeEnergy>
2.91342

> <POSE_NUMBER>
38

> <LibDockScore>
126.0837

> <HotSpots>
0.27,-24.92,46.38,A,19,3
1.67,-24.32,50.98,A,50,8
-5.33,-24.12,49.78,A,36,15

$$$$
Molecule
  SciTegic05072616053D

 69 73  0  0  0  0            999 V2000
   -4.3024  -23.7375   51.1442 C   0  0  0  1  0  0
   -3.9749  -25.2101   50.8130 C   0  0  0  1  0  0
   -3.4645  -25.3577   49.3658 C   0  0  0  1  0  0
   -3.0206  -25.8257   51.8125 C   0  0  0  1  0  0
   -1.7343  -25.2429   51.8816 C   0  0  0  1  0  0
   -0.7918  -25.6615   52.8260 C   0  0  0  1  0  0
   -1.1237  -26.6734   53.7269 C   0  0  0  1  0  0
   -2.3765  -27.2905   53.6556 C   0  0  0  1  0  0
   -3.3422  -26.9275   52.6757 C   0  0  0  1  0  0
   -4.6627  -27.7152   52.6063 C   0  0  0  1  0  0
   -4.7653  -28.8255   53.6888 C   0  0  0  1  0  0
   -5.3970  -28.6195   54.6992 O   0  0  0  1  0  0
   -4.1469  -30.0553   53.4931 N   0  0  0  1  0  0
   -4.2626  -31.2033   54.2743 C   0  0  0  1  0  0
   -4.8333  -31.2171   55.5699 C   0  0  0  1  0  0
   -4.9419  -32.4265   56.2793 C   0  0  0  1  0  0
   -4.4924  -33.6016   55.7546 N   0  0  0  1  0  0
   -3.9304  -33.6153   54.5133 C   0  0  0  1  0  0
   -3.8071  -32.4363   53.7526 C   0  0  0  1  0  0
   -5.8658  -26.7211   52.7931 C   0  0  0  1  0  0
   -7.1447  -27.1314   52.0244 C   0  0  0  1  0  0
   -7.2771  -28.6148   51.9773 N   0  0  0  1  0  0
   -8.2885  -29.2883   52.6555 C   0  0  0  1  0  0
   -8.7334  -30.5547   52.2140 C   0  0  0  1  0  0
   -9.6885  -31.2752   52.9432 C   0  0  0  1  0  0
  -10.2160  -30.7458   54.1313 C   0  0  0  1  0  0
  -11.1720  -31.5741   54.9523 C   0  0  0  1  0  0
  -10.6394  -31.7805   56.3613 C   0  0  0  1  0  0
  -10.0178  -32.7903   56.6059 O   0  0  0  1  0  0
  -10.8449  -30.8506   57.2922 O   0  0  0  1  0  0
  -11.9099  -32.7248   54.2928 C   0  0  0  1  0  0
  -12.6743  -31.4963   54.7216 C   0  0  0  1  0  0
   -9.8309  -29.4623   54.5523 C   0  0  0  1  0  0
   -8.8805  -28.7358   53.8163 C   0  0  0  1  0  0
   -6.1835  -29.3119   51.2218 C   0  0  0  1  0  0
   -4.8719  -28.4848   51.2487 C   0  0  0  1  0  0
   -5.0656  -23.3844   50.4507 H   0  0
   -3.3999  -23.1405   51.0133 H   0  0
   -4.6614  -23.6512   52.1698 H   0  0
   -4.9066  -25.7702   50.8920 H   0  0
   -2.5679  -24.7493   49.2474 H   0  0
   -4.2336  -24.9932   48.6848 H   0  0
   -3.2384  -26.4017   49.1489 H   0  0
   -1.4712  -24.4490   51.1826 H   0  0
    0.1953  -25.2003   52.8579 H   0  0
   -0.4062  -26.9832   54.4867 H   0  0
   -2.6208  -28.0739   54.3730 H   0  0
   -3.5051  -30.1290   52.6402 H   0  0
   -5.1889  -30.2893   56.0180 H   0  0
   -5.3955  -32.4242   57.2705 H   0  0
   -3.5691  -34.5574   54.1009 H   0  0
   -3.3595  -32.4743   52.7595 H   0  0
   -5.5595  -25.7295   52.4600 H   0  0
   -6.1023  -26.6499   53.8548 H   0  0
   -7.0957  -26.7425   51.0073 H   0  0
   -8.0166  -26.7083   52.5232 H   0  0
   -8.3283  -30.9766   51.2942 H   0  0
  -10.0228  -32.2495   52.5869 H   0  0
  -11.8871  -30.7252   57.3172 H   0  0
  -12.0601  -33.5536   54.9846 H   0  0
  -11.7455  -32.7406   53.2154 H   0  0
  -12.9159  -30.8562   53.8731 H   0  0
  -13.2293  -31.6690   55.6437 H   0  0
  -10.2701  -29.0296   55.4512 H   0  0
   -8.5957  -27.7356   54.1427 H   0  0
   -6.4957  -29.4559   50.1874 H   0  0
   -6.0017  -30.2878   51.6719 H   0  0
   -4.0278  -29.1548   51.0854 H   0  0
   -4.8911  -27.7641   50.4312 H   0  0
  1  2  1  0
  2  3  1  0
  2  4  1  0
  4  5  2  0
  4  9  1  0
  5  6  1  0
  6  7  2  0
  7  8  1  0
  8  9  2  0
  9 10  1  0
 10 11  1  0
 10 20  1  0
 10 36  1  0
 11 12  2  0
 11 13  1  0
 13 14  1  0
 14 15  2  0
 14 19  1  0
 15 16  1  0
 16 17  2  0
 17 18  1  0
 18 19  2  0
 20 21  1  0
 21 22  1  0
 22 23  1  0
 22 35  1  0
 23 24  2  0
 23 34  1  0
 24 25  1  0
 25 26  2  0
 26 27  1  0
 26 33  1  0
 27 28  1  0
 27 31  1  0
 27 32  1  0
 28 29  2  0
 28 30  1  0
 31 32  1  0
 33 34  2  0
 35 36  1  0
  1 37  1  0
  1 38  1  0
  1 39  1  0
  2 40  1  0
  3 41  1  0
  3 42  1  0
  3 43  1  0
  5 44  1  0
  6 45  1  0
  7 46  1  0
  8 47  1  0
 13 48  1  0
 15 49  1  0
 16 50  1  0
 18 51  1  0
 19 52  1  0
 20 53  1  0
 20 54  1  0
 21 55  1  0
 21 56  1  0
 24 57  1  0
 25 58  1  0
 30 59  1  0
 31 60  1  0
 31 61  1  0
 32 62  1  0
 32 63  1  0
 33 64  1  0
 34 65  1  0
 35 66  1  0
 35 67  1  0
 36 68  1  0
 36 69  1  0
M  END
> <Name>
Molecule

> <AbsoluteEnergy>
70.166

> <Clean Energy>
200.853

> <ConfNumber>
35

> <MOL_NUMBER>
4

> <RelativeEnergy>
8.64344

> <POSE_NUMBER>
39

> <LibDockScore>
126.0803

> <HotSpots>
-0.33,-25.52,53.19,A,64,6
-3.33,-33.72,54.98,P,58,17
-11.53,-32.52,54.78,A,71,31

$$$$
Molecule
  SciTegic05072616053D

 69 73  0  0  0  0            999 V2000
   -4.8918  -24.6818   52.7330 C   0  0  0  1  0  0
   -5.6810  -25.6002   51.7769 C   0  0  0  1  0  0
   -6.2833  -24.7973   50.6079 C   0  0  0  1  0  0
   -4.8468  -26.7658   51.2865 C   0  0  0  1  0  0
   -3.6740  -26.4274   50.5737 C   0  0  0  1  0  0
   -2.8310  -27.4095   50.0447 C   0  0  0  1  0  0
   -3.1503  -28.7563   50.2137 C   0  0  0  1  0  0
   -4.3053  -29.1176   50.9187 C   0  0  0  1  0  0
   -5.1753  -28.1500   51.4909 C   0  0  0  1  0  0
   -6.4121  -28.6222   52.2756 C   0  0  0  1  0  0
   -6.2453  -30.0430   52.8781 C   0  0  0  1  0  0
   -6.7072  -30.9968   52.2899 O   0  0  0  1  0  0
   -5.5964  -30.2400   54.0912 N   0  0  0  1  0  0
   -4.8635  -31.3622   54.4548 C   0  0  0  1  0  0
   -4.5516  -32.4095   53.5578 C   0  0  0  1  0  0
   -3.8256  -33.5278   54.0119 C   0  0  0  1  0  0
   -3.4023  -33.6242   55.3031 N   0  0  0  1  0  0
   -3.6773  -32.6174   56.1798 C   0  0  0  1  0  0
   -4.3991  -31.4752   55.7838 C   0  0  0  1  0  0
   -6.7821  -27.6405   53.4639 C   0  0  0  1  0  0
   -8.2982  -27.4383   53.6535 C   0  0  0  1  0  0
   -8.9989  -28.7188   53.3897 N   0  0  0  1  0  0
   -9.5465  -29.5145   54.3920 C   0  0  0  1  0  0
  -10.3183  -30.6546   54.0713 C   0  0  0  1  0  0
  -10.8260  -31.4856   55.0827 C   0  0  0  1  0  0
  -10.5762  -31.1884   56.4343 C   0  0  0  1  0  0
  -11.0992  -32.0942   57.5220 C   0  0  0  1  0  0
  -12.5104  -31.7383   57.9597 C   0  0  0  1  0  0
  -13.3736  -31.6259   57.1202 O   0  0  0  1  0  0
  -12.7718  -31.5564   59.2531 O   0  0  0  1  0  0
  -10.1337  -32.6197   58.5729 C   0  0  0  1  0  0
  -10.6875  -33.5587   57.5306 C   0  0  0  1  0  0
   -9.8360  -30.0415   56.7672 C   0  0  0  1  0  0
   -9.3253  -29.2125   55.7564 C   0  0  0  1  0  0
   -8.9758  -29.1268   51.9572 C   0  0  0  1  0  0
   -7.6341  -28.7202   51.2854 C   0  0  0  1  0  0
   -5.5657  -23.9194   53.1237 H   0  0
   -4.0918  -24.1969   52.1736 H   0  0
   -4.4723  -25.2635   53.5538 H   0  0
   -6.5068  -26.0270   52.3461 H   0  0
   -5.4745  -24.3117   50.0618 H   0  0
   -6.9485  -24.0341   51.0119 H   0  0
   -6.8372  -25.4590   49.9419 H   0  0
   -3.4209  -25.3765   50.4332 H   0  0
   -1.9292  -27.1239   49.5032 H   0  0
   -2.5017  -29.5271   49.7976 H   0  0
   -4.5448  -30.1749   51.0323 H   0  0
   -5.6682  -29.4532   54.8128 H   0  0
   -4.8721  -32.3517   52.5176 H   0  0
   -3.5974  -34.3340   53.3147 H   0  0
   -3.3308  -32.6983   57.2101 H   0  0
   -4.5991  -30.6797   56.5016 H   0  0
   -6.3193  -26.6711   53.2792 H   0  0
   -6.3618  -28.0330   54.3898 H   0  0
   -8.6550  -26.6790   52.9576 H   0  0
   -8.4977  -27.1189   54.6764 H   0  0
  -10.5216  -30.8912   53.0269 H   0  0
  -11.4156  -32.3638   54.8195 H   0  0
  -12.1017  -30.8086   59.5601 H   0  0
  -10.6251  -32.7531   59.5366 H   0  0
   -9.1061  -32.3322   58.3506 H   0  0
   -9.9553  -33.7729   56.7521 H   0  0
  -11.4753  -34.1926   57.9376 H   0  0
   -9.6578  -29.7948   57.8139 H   0  0
   -8.7516  -28.3257   56.0257 H   0  0
   -9.8008  -28.6455   51.4320 H   0  0
   -9.0987  -30.2077   51.8893 H   0  0
   -7.3990  -29.4465   50.5073 H   0  0
   -7.7669  -27.7556   50.7955 H   0  0
  1  2  1  0
  2  3  1  0
  2  4  1  0
  4  5  2  0
  4  9  1  0
  5  6  1  0
  6  7  2  0
  7  8  1  0
  8  9  2  0
  9 10  1  0
 10 11  1  0
 10 20  1  0
 10 36  1  0
 11 12  2  0
 11 13  1  0
 13 14  1  0
 14 15  2  0
 14 19  1  0
 15 16  1  0
 16 17  2  0
 17 18  1  0
 18 19  2  0
 20 21  1  0
 21 22  1  0
 22 23  1  0
 22 35  1  0
 23 24  2  0
 23 34  1  0
 24 25  1  0
 25 26  2  0
 26 27  1  0
 26 33  1  0
 27 28  1  0
 27 31  1  0
 27 32  1  0
 28 29  2  0
 28 30  1  0
 31 32  1  0
 33 34  2  0
 35 36  1  0
  1 37  1  0
  1 38  1  0
  1 39  1  0
  2 40  1  0
  3 41  1  0
  3 42  1  0
  3 43  1  0
  5 44  1  0
  6 45  1  0
  7 46  1  0
  8 47  1  0
 13 48  1  0
 15 49  1  0
 16 50  1  0
 18 51  1  0
 19 52  1  0
 20 53  1  0
 20 54  1  0
 21 55  1  0
 21 56  1  0
 24 57  1  0
 25 58  1  0
 30 59  1  0
 31 60  1  0
 31 61  1  0
 32 62  1  0
 32 63  1  0
 33 64  1  0
 34 65  1  0
 35 66  1  0
 35 67  1  0
 36 68  1  0
 36 69  1  0
M  END
> <Name>
Molecule

> <AbsoluteEnergy>
68.7182

> <Clean Energy>
200.853

> <ConfNumber>
26

> <MOL_NUMBER>
4

> <RelativeEnergy>
7.19564

> <POSE_NUMBER>
40

> <LibDockScore>
125.9493

> <HotSpots>
-5.13,-23.32,51.38,A,54,1
-4.13,-31.12,56.59,A,79,18
-9.53,-30.12,52.78,A,62,24

$$$$
Molecule
  SciTegic05072616053D

 69 73  0  0  0  0            999 V2000
   -6.2592  -23.3078   49.7268 C   0  0  0  1  0  0
   -4.8072  -23.8424   49.7310 C   0  0  0  1  0  0
   -3.8677  -22.6962   50.1560 C   0  0  0  1  0  0
   -4.3396  -24.5151   48.4491 C   0  0  0  1  0  0
   -5.1315  -24.2980   47.2904 C   0  0  0  1  0  0
   -4.7938  -24.8394   46.0482 C   0  0  0  1  0  0
   -3.6412  -25.6070   45.9230 C   0  0  0  1  0  0
   -2.8374  -25.8375   47.0431 C   0  0  0  1  0  0
   -3.1549  -25.3361   48.3354 C   0  0  0  1  0  0
   -2.1668  -25.7001   49.4769 C   0  0  0  1  0  0
   -0.8510  -24.9204   49.2825 C   0  0  0  1  0  0
   -0.7401  -24.1607   48.3467 O   0  0  0  1  0  0
    0.1998  -25.0939   50.1765 N   0  0  0  1  0  0
    1.4716  -24.5214   50.1591 C   0  0  0  1  0  0
    1.9240  -23.6032   49.1794 C   0  0  0  1  0  0
    3.2326  -23.0868   49.2516 C   0  0  0  1  0  0
    4.0875  -23.4431   50.2509 N   0  0  0  1  0  0
    3.6742  -24.3205   51.2067 C   0  0  0  1  0  0
    2.3799  -24.8715   51.1853 C   0  0  0  1  0  0
   -1.8250  -27.2362   49.4898 C   0  0  0  1  0  0
   -3.0512  -28.1339   49.7518 C   0  0  0  1  0  0
   -3.6946  -27.7776   51.0499 N   0  0  0  1  0  0
   -3.9844  -28.7181   52.0341 C   0  0  0  1  0  0
   -3.3077  -29.9590   52.0750 C   0  0  0  1  0  0
   -3.5918  -30.8994   53.0772 C   0  0  0  1  0  0
   -4.5519  -30.6145   54.0628 C   0  0  0  1  0  0
   -4.8358  -31.6190   55.1529 C   0  0  0  1  0  0
   -3.8806  -31.4838   56.3269 C   0  0  0  1  0  0
   -2.8563  -32.1278   56.3305 O   0  0  0  1  0  0
   -4.1943  -30.6553   57.3204 O   0  0  0  1  0  0
   -5.3256  -33.0075   54.7743 C   0  0  0  1  0  0
   -6.2705  -32.0348   55.4367 C   0  0  0  1  0  0
   -5.2367  -29.3880   54.0297 C   0  0  0  1  0  0
   -4.9591  -28.4497   53.0223 C   0  0  0  1  0  0
   -3.9818  -26.3241   51.2333 C   0  0  0  1  0  0
   -2.7174  -25.4933   50.9247 C   0  0  0  1  0  0
   -6.3512  -22.4839   49.0191 H   0  0
   -6.5339  -22.9667   50.7249 H   0  0
   -6.9329  -24.1107   49.4274 H   0  0
   -4.7798  -24.6601   50.4512 H   0  0
   -4.1287  -22.3516   51.1566 H   0  0
   -3.9460  -21.8688   49.4507 H   0  0
   -2.8409  -23.0620   50.1624 H   0  0
   -6.0318  -23.6892   47.3733 H   0  0
   -5.4303  -24.6612   45.1815 H   0  0
   -3.3657  -26.0271   44.9557 H   0  0
   -1.9285  -26.4267   46.9208 H   0  0
    0.0057  -25.7595   50.9915 H   0  0
    1.2603  -23.2968   48.3709 H   0  0
    3.5697  -22.3847   48.4890 H   0  0
    4.3607  -24.6019   52.0053 H   0  0
    2.0756  -25.5716   51.9633 H   0  0
   -1.3872  -27.5093   48.5297 H   0  0
   -1.0780  -27.4269   50.2603 H   0  0
   -3.7725  -28.0039   48.9450 H   0  0
   -2.7363  -29.1770   49.7809 H   0  0
   -2.5565  -30.1879   51.3191 H   0  0
   -3.0659  -31.8540   53.0911 H   0  0
   -5.1348  -30.9768   57.6588 H   0  0
   -4.9692  -33.7625   55.4750 H   0  0
   -5.5146  -33.0864   53.7037 H   0  0
   -6.9638  -31.5957   54.7194 H   0  0
   -6.4171  -32.2706   56.4907 H   0  0
   -5.9862  -29.1640   54.7888 H   0  0
   -5.5011  -27.5042   53.0021 H   0  0
   -4.2914  -26.1422   52.2624 H   0  0
   -4.7842  -26.0256   50.5586 H   0  0
   -2.9472  -24.4375   51.0682 H   0  0
   -1.9388  -25.7596   51.6395 H   0  0
  1  2  1  0
  2  3  1  0
  2  4  1  0
  4  5  2  0
  4  9  1  0
  5  6  1  0
  6  7  2  0
  7  8  1  0
  8  9  2  0
  9 10  1  0
 10 11  1  0
 10 20  1  0
 10 36  1  0
 11 12  2  0
 11 13  1  0
 13 14  1  0
 14 15  2  0
 14 19  1  0
 15 16  1  0
 16 17  2  0
 17 18  1  0
 18 19  2  0
 20 21  1  0
 21 22  1  0
 22 23  1  0
 22 35  1  0
 23 24  2  0
 23 34  1  0
 24 25  1  0
 25 26  2  0
 26 27  1  0
 26 33  1  0
 27 28  1  0
 27 31  1  0
 27 32  1  0
 28 29  2  0
 28 30  1  0
 31 32  1  0
 33 34  2  0
 35 36  1  0
  1 37  1  0
  1 38  1  0
  1 39  1  0
  2 40  1  0
  3 41  1  0
  3 42  1  0
  3 43  1  0
  5 44  1  0
  6 45  1  0
  7 46  1  0
  8 47  1  0
 13 48  1  0
 15 49  1  0
 16 50  1  0
 18 51  1  0
 19 52  1  0
 20 53  1  0
 20 54  1  0
 21 55  1  0
 21 56  1  0
 24 57  1  0
 25 58  1  0
 30 59  1  0
 31 60  1  0
 31 61  1  0
 32 62  1  0
 32 63  1  0
 33 64  1  0
 34 65  1  0
 35 66  1  0
 35 67  1  0
 36 68  1  0
 36 69  1  0
M  END
> <Name>
Molecule

> <AbsoluteEnergy>
71.0466

> <Clean Energy>
200.853

> <ConfNumber>
42

> <MOL_NUMBER>
4

> <RelativeEnergy>
9.52408

> <POSE_NUMBER>
41

> <LibDockScore>
125.8142

> <HotSpots>
-4.53,-24.52,46.19,A,17,6
2.67,-23.92,48.98,A,32,15
-4.13,-30.52,57.38,P,71,30

$$$$
Molecule
  SciTegic05072616053D

 69 73  0  0  0  0            999 V2000
   -1.1641  -24.0206   48.8490 C   0  0  0  1  0  0
   -0.4688  -25.2303   49.4989 C   0  0  0  1  0  0
    0.7859  -25.6343   48.6914 C   0  0  0  1  0  0
   -0.2024  -24.9910   50.9704 C   0  0  0  1  0  0
    0.7942  -24.0289   51.2688 C   0  0  0  1  0  0
    1.1710  -23.7355   52.5844 C   0  0  0  1  0  0
    0.5469  -24.3919   53.6439 C   0  0  0  1  0  0
   -0.4588  -25.3245   53.3813 C   0  0  0  1  0  0
   -0.8766  -25.6438   52.0616 C   0  0  0  1  0  0
   -2.0351  -26.6569   52.0205 C   0  0  0  1  0  0
   -3.3464  -25.8458   51.9534 C   0  0  0  1  0  0
   -4.2229  -26.0518   52.7638 O   0  0  0  1  0  0
   -3.4861  -24.8777   50.9641 N   0  0  0  1  0  0
   -4.6100  -24.1337   50.6127 C   0  0  0  1  0  0
   -4.4707  -23.1193   49.6368 C   0  0  0  1  0  0
   -5.5789  -22.3344   49.2650 C   0  0  0  1  0  0
   -6.8045  -22.5317   49.8242 N   0  0  0  1  0  0
   -6.9688  -23.5087   50.7609 C   0  0  0  1  0  0
   -5.8955  -24.3254   51.1715 C   0  0  0  1  0  0
   -2.1439  -27.6891   50.8530 C   0  0  0  1  0  0
   -3.4318  -28.5544   50.9484 C   0  0  0  1  0  0
   -3.6810  -29.0065   52.3549 N   0  0  0  1  0  0
   -4.9336  -29.3636   52.8529 C   0  0  0  1  0  0
   -6.1059  -29.1947   52.0801 C   0  0  0  1  0  0
   -7.3728  -29.3851   52.6538 C   0  0  0  1  0  0
   -7.4865  -29.7506   54.0051 C   0  0  0  1  0  0
   -8.8417  -29.7657   54.6718 C   0  0  0  1  0  0
   -9.1849  -28.4060   55.2864 C   0  0  0  1  0  0
   -9.3255  -27.4447   54.5592 O   0  0  0  1  0  0
   -9.3197  -28.3047   56.6088 O   0  0  0  1  0  0
   -9.3144  -31.0374   55.3622 C   0  0  0  1  0  0
   -9.9660  -30.5953   54.0730 C   0  0  0  1  0  0
   -6.3328  -30.0623   54.7409 C   0  0  0  1  0  0
   -5.0670  -29.8766   54.1659 C   0  0  0  1  0  0
   -2.4784  -28.9694   53.2273 C   0  0  0  1  0  0
   -1.9401  -27.5282   53.3298 C   0  0  0  1  0  0
   -1.4548  -24.2821   47.8316 H   0  0
   -0.4662  -23.1839   48.8182 H   0  0
   -2.0468  -23.7438   49.4254 H   0  0
   -1.1415  -26.0872   49.4650 H   0  0
    1.4759  -24.7910   48.6612 H   0  0
    0.4873  -25.8893   47.6746 H   0  0
    1.2706  -26.4911   49.1595 H   0  0
    1.2820  -23.5015   50.4491 H   0  0
    1.9488  -22.9972   52.7795 H   0  0
    0.8421  -24.1785   54.6712 H   0  0
   -0.9412  -25.8261   54.2202 H   0  0
   -2.6048  -24.6759   50.3917 H   0  0
   -3.5011  -22.9445   49.1705 H   0  0
   -5.4532  -21.5536   48.5149 H   0  0
   -7.9534  -23.6620   51.2028 H   0  0
   -6.0558  -25.1032   51.9182 H   0  0
   -2.1445  -27.1542   49.9033 H   0  0
   -1.2732  -28.3445   50.8732 H   0  0
   -3.3271  -29.4281   50.3052 H   0  0
   -4.2843  -27.9687   50.6045 H   0  0
   -6.0250  -28.9143   51.0299 H   0  0
   -8.2697  -29.2491   52.0496 H   0  0
   -8.4123  -28.6576   57.0019 H   0  0
   -9.9404  -30.8144   56.2262 H   0  0
   -8.6199  -31.8617   55.1999 H   0  0
   -9.6199  -31.1857   53.2246 H   0  0
  -10.9391  -30.1374   54.2506 H   0  0
   -6.4202  -30.4478   55.7567 H   0  0
   -4.1742  -30.1306   54.7374 H   0  0
   -2.7422  -29.3280   54.2222 H   0  0
   -1.7061  -29.6142   52.8078 H   0  0
   -0.8966  -27.5720   53.6415 H   0  0
   -2.4782  -27.0161   54.1274 H   0  0
  1  2  1  0
  2  3  1  0
  2  4  1  0
  4  5  2  0
  4  9  1  0
  5  6  1  0
  6  7  2  0
  7  8  1  0
  8  9  2  0
  9 10  1  0
 10 11  1  0
 10 20  1  0
 10 36  1  0
 11 12  2  0
 11 13  1  0
 13 14  1  0
 14 15  2  0
 14 19  1  0
 15 16  1  0
 16 17  2  0
 17 18  1  0
 18 19  2  0
 20 21  1  0
 21 22  1  0
 22 23  1  0
 22 35  1  0
 23 24  2  0
 23 34  1  0
 24 25  1  0
 25 26  2  0
 26 27  1  0
 26 33  1  0
 27 28  1  0
 27 31  1  0
 27 32  1  0
 28 29  2  0
 28 30  1  0
 31 32  1  0
 33 34  2  0
 35 36  1  0
  1 37  1  0
  1 38  1  0
  1 39  1  0
  2 40  1  0
  3 41  1  0
  3 42  1  0
  3 43  1  0
  5 44  1  0
  6 45  1  0
  7 46  1  0
  8 47  1  0
 13 48  1  0
 15 49  1  0
 16 50  1  0
 18 51  1  0
 19 52  1  0
 20 53  1  0
 20 54  1  0
 21 55  1  0
 21 56  1  0
 24 57  1  0
 25 58  1  0
 30 59  1  0
 31 60  1  0
 31 61  1  0
 32 62  1  0
 32 63  1  0
 33 64  1  0
 34 65  1  0
 35 66  1  0
 35 67  1  0
 36 68  1  0
 36 69  1  0
M  END
> <Name>
Molecule

> <AbsoluteEnergy>
77.3614

> <Clean Energy>
200.853

> <ConfNumber>
80

> <MOL_NUMBER>
4

> <RelativeEnergy>
15.8389

> <POSE_NUMBER>
42

> <LibDockScore>
125.7991

> <HotSpots>
2.27,-24.92,52.19,A,58,3
0.47,-23.32,53.78,A,67,5
-5.93,-24.72,51.19,A,53,19

$$$$
Molecule
  SciTegic05072616053D

 69 73  0  0  0  0            999 V2000
    0.7330  -25.2051   46.1944 C   0  0  0  1  0  0
    0.7329  -25.7113   47.6495 C   0  0  0  1  0  0
    1.4998  -27.0396   47.7853 C   0  0  0  1  0  0
    1.2518  -24.6690   48.6144 C   0  0  0  1  0  0
    2.5898  -24.2442   48.4419 C   0  0  0  1  0  0
    3.1565  -23.2784   49.2798 C   0  0  0  1  0  0
    2.3940  -22.7213   50.3099 C   0  0  0  1  0  0
    1.0647  -23.1300   50.5020 C   0  0  0  1  0  0
    0.4575  -24.1066   49.6684 C   0  0  0  1  0  0
   -1.0099  -24.5273   49.8861 C   0  0  0  1  0  0
   -1.8553  -24.2326   48.6241 C   0  0  0  1  0  0
   -2.5736  -25.1186   48.2188 O   0  0  0  1  0  0
   -1.7909  -22.9988   47.9655 N   0  0  0  1  0  0
   -2.6975  -22.4551   47.0530 C   0  0  0  1  0  0
   -3.9801  -22.9933   46.7998 C   0  0  0  1  0  0
   -4.8233  -22.3896   45.8456 C   0  0  0  1  0  0
   -4.4385  -21.2841   45.1457 N   0  0  0  1  0  0
   -3.2140  -20.7365   45.3823 C   0  0  0  1  0  0
   -2.3308  -21.2923   46.3289 C   0  0  0  1  0  0
   -1.0632  -26.0516   50.3128 C   0  0  0  1  0  0
   -1.8078  -26.3923   51.6270 C   0  0  0  1  0  0
   -3.1530  -25.7585   51.6610 N   0  0  0  1  0  0
   -4.3225  -26.4778   51.9492 C   0  0  0  1  0  0
   -5.5837  -25.8560   51.8079 C   0  0  0  1  0  0
   -6.7749  -26.5680   52.0378 C   0  0  0  1  0  0
   -6.7458  -27.9341   52.3866 C   0  0  0  1  0  0
   -8.0390  -28.7310   52.5098 C   0  0  0  1  0  0
   -8.7810  -28.6441   53.8503 C   0  0  0  1  0  0
   -9.1898  -29.6550   54.3792 O   0  0  0  1  0  0
   -9.0135  -27.4575   54.4147 O   0  0  0  1  0  0
   -8.0823  -30.0636   51.7736 C   0  0  0  1  0  0
   -8.9264  -28.9155   51.2839 C   0  0  0  1  0  0
   -5.4969  -28.5525   52.5889 C   0  0  0  1  0  0
   -4.2985  -27.8344   52.3757 C   0  0  0  1  0  0
   -3.1645  -24.2947   51.3361 C   0  0  0  1  0  0
   -1.7481  -23.7380   51.0176 C   0  0  0  1  0  0
    0.2670  -25.9616   45.5629 H   0  0
    1.7657  -25.0644   45.8752 H   0  0
    0.1861  -24.2653   46.1187 H   0  0
   -0.3058  -25.9029   47.9189 H   0  0
    2.5263  -26.8841   47.4532 H   0  0
    1.0276  -27.7813   47.1410 H   0  0
    1.4886  -27.3811   48.8204 H   0  0
    3.1900  -24.6773   47.6417 H   0  0
    4.1886  -22.9615   49.1300 H   0  0
    2.8320  -21.9684   50.9652 H   0  0
    0.4841  -22.6868   51.3111 H   0  0
   -0.9369  -22.3945   48.1903 H   0  0
   -4.3171  -23.8761   47.3432 H   0  0
   -5.8089  -22.8174   45.6621 H   0  0
   -2.9107  -19.8488   44.8271 H   0  0
   -1.3613  -20.8264   46.5054 H   0  0
   -0.0414  -26.4223   50.3943 H   0  0
   -1.5231  -26.6188   49.5035 H   0  0
   -1.2230  -26.0368   52.4753 H   0  0
   -1.9191  -27.4736   51.7073 H   0  0
   -5.6343  -24.8071   51.5159 H   0  0
   -7.7332  -26.0570   51.9451 H   0  0
   -9.5321  -26.9146   53.6806 H   0  0
   -8.6775  -30.7996   52.3142 H   0  0
   -7.1969  -30.2060   51.1541 H   0  0
   -8.4926  -28.4435   50.4024 H   0  0
   -9.9729  -29.0362   51.5639 H   0  0
   -5.4542  -29.5926   52.9123 H   0  0
   -3.3408  -28.3280   52.5407 H   0  0
   -3.5791  -23.7462   52.1819 H   0  0
   -3.8130  -24.1277   50.4761 H   0  0
   -1.8389  -22.6934   50.7198 H   0  0
   -1.1439  -23.7719   51.9242 H   0  0
  1  2  1  0
  2  3  1  0
  2  4  1  0
  4  5  2  0
  4  9  1  0
  5  6  1  0
  6  7  2  0
  7  8  1  0
  8  9  2  0
  9 10  1  0
 10 11  1  0
 10 20  1  0
 10 36  1  0
 11 12  2  0
 11 13  1  0
 13 14  1  0
 14 15  2  0
 14 19  1  0
 15 16  1  0
 16 17  2  0
 17 18  1  0
 18 19  2  0
 20 21  1  0
 21 22  1  0
 22 23  1  0
 22 35  1  0
 23 24  2  0
 23 34  1  0
 24 25  1  0
 25 26  2  0
 26 27  1  0
 26 33  1  0
 27 28  1  0
 27 31  1  0
 27 32  1  0
 28 29  2  0
 28 30  1  0
 31 32  1  0
 33 34  2  0
 35 36  1  0
  1 37  1  0
  1 38  1  0
  1 39  1  0
  2 40  1  0
  3 41  1  0
  3 42  1  0
  3 43  1  0
  5 44  1  0
  6 45  1  0
  7 46  1  0
  8 47  1  0
 13 48  1  0
 15 49  1  0
 16 50  1  0
 18 51  1  0
 19 52  1  0
 20 53  1  0
 20 54  1  0
 21 55  1  0
 21 56  1  0
 24 57  1  0
 25 58  1  0
 30 59  1  0
 31 60  1  0
 31 61  1  0
 32 62  1  0
 32 63  1  0
 33 64  1  0
 34 65  1  0
 35 66  1  0
 35 67  1  0
 36 68  1  0
 36 69  1  0
M  END
> <Name>
Molecule

> <AbsoluteEnergy>
67.6699

> <Clean Energy>
200.853

> <ConfNumber>
18

> <MOL_NUMBER>
4

> <RelativeEnergy>
6.14736

> <POSE_NUMBER>
43

> <LibDockScore>
125.7718

> <HotSpots>
1.87,-25.32,48.38,A,30,3
-3.53,-20.52,45.19,A,12,18
-6.53,-30.72,51.78,A,56,31

$$$$
Molecule
  SciTegic05072616053D

 69 73  0  0  0  0            999 V2000
   -0.3009  -23.5896   48.4420 C   0  0  0  1  0  0
   -0.1504  -24.9936   49.0562 C   0  0  0  1  0  0
    0.5136  -25.9747   48.0727 C   0  0  0  1  0  0
    0.5690  -24.9546   50.3866 C   0  0  0  1  0  0
    1.9371  -24.6039   50.3607 C   0  0  0  1  0  0
    2.6886  -24.5287   51.5385 C   0  0  0  1  0  0
    2.0807  -24.8021   52.7664 C   0  0  0  1  0  0
    0.7254  -25.1543   52.8146 C   0  0  0  1  0  0
   -0.0626  -25.2479   51.6383 C   0  0  0  1  0  0
   -1.5440  -25.6502   51.7248 C   0  0  0  1  0  0
   -2.4158  -24.4859   51.2074 C   0  0  0  1  0  0
   -1.9080  -23.3946   51.0720 O   0  0  0  1  0  0
   -3.7560  -24.6762   50.8975 N   0  0  0  1  0  0
   -4.7089  -23.7142   50.5757 C   0  0  0  1  0  0
   -6.0751  -24.0760   50.6001 C   0  0  0  1  0  0
   -7.0641  -23.1249   50.2857 C   0  0  0  1  0  0
   -6.7369  -21.8451   49.9524 N   0  0  0  1  0  0
   -5.4275  -21.4728   49.9143 C   0  0  0  1  0  0
   -4.3940  -22.3824   50.2146 C   0  0  0  1  0  0
   -1.7411  -27.0107   50.9512 C   0  0  0  1  0  0
   -2.5138  -28.1220   51.6977 C   0  0  0  1  0  0
   -3.7076  -27.6040   52.4334 N   0  0  0  1  0  0
   -4.9685  -28.1939   52.3280 C   0  0  0  1  0  0
   -5.1104  -29.5485   51.9435 C   0  0  0  1  0  0
   -6.3803  -30.1356   51.8222 C   0  0  0  1  0  0
   -7.5368  -29.3834   52.0896 C   0  0  0  1  0  0
   -8.9032  -30.0112   51.9574 C   0  0  0  1  0  0
   -9.6155  -30.1631   53.2936 C   0  0  0  1  0  0
  -10.3006  -31.1407   53.4873 O   0  0  0  1  0  0
   -9.4732  -29.2206   54.2246 O   0  0  0  1  0  0
   -9.1383  -31.0703   50.8911 C   0  0  0  1  0  0
   -9.7455  -29.6987   50.7309 C   0  0  0  1  0  0
   -7.4117  -28.0404   52.4854 C   0  0  0  1  0  0
   -6.1427  -27.4538   52.6039 C   0  0  0  1  0  0
   -3.4709  -26.4141   53.3040 C   0  0  0  1  0  0
   -2.0263  -25.8919   53.1927 C   0  0  0  1  0  0
   -0.9077  -23.6687   47.5400 H   0  0
    0.6887  -23.2213   48.1715 H   0  0
   -0.7723  -22.9111   49.1530 H   0  0
   -1.1555  -25.3668   49.2528 H   0  0
    1.4963  -25.5862   47.8053 H   0  0
   -0.1001  -26.0335   47.1738 H   0  0
    0.6108  -26.9613   48.5258 H   0  0
    2.4161  -24.3879   49.4057 H   0  0
    3.7437  -24.2580   51.4983 H   0  0
    2.6609  -24.7414   53.6871 H   0  0
    0.2646  -25.3617   53.7804 H   0  0
   -4.0991  -25.6896   50.9074 H   0  0
   -6.3635  -25.0938   50.8630 H   0  0
   -8.1135  -23.4185   50.3094 H   0  0
   -5.1730  -20.4476   49.6453 H   0  0
   -3.3535  -22.0608   50.1689 H   0  0
   -0.7599  -27.3992   50.6785 H   0  0
   -2.2580  -26.8034   50.0142 H   0  0
   -1.8437  -28.6063   52.4080 H   0  0
   -2.8403  -28.8726   50.9780 H   0  0
   -4.2212  -30.1447   51.7386 H   0  0
   -6.4693  -31.1789   51.5194 H   0  0
   -9.7759  -28.3312   53.7557 H   0  0
   -9.8787  -31.8032   51.2117 H   0  0
   -8.2618  -31.1992   50.2562 H   0  0
   -9.1937  -29.0961   50.0094 H   0  0
  -10.8098  -29.6996   50.9663 H   0  0
   -8.3039  -27.4525   52.7011 H   0  0
   -6.0600  -26.4119   52.9133 H   0  0
   -3.6731  -26.6840   54.3405 H   0  0
   -4.1600  -25.6199   53.0168 H   0  0
   -1.9485  -24.9570   53.7477 H   0  0
   -1.3573  -26.6086   53.6690 H   0  0
  1  2  1  0
  2  3  1  0
  2  4  1  0
  4  5  2  0
  4  9  1  0
  5  6  1  0
  6  7  2  0
  7  8  1  0
  8  9  2  0
  9 10  1  0
 10 11  1  0
 10 20  1  0
 10 36  1  0
 11 12  2  0
 11 13  1  0
 13 14  1  0
 14 15  2  0
 14 19  1  0
 15 16  1  0
 16 17  2  0
 17 18  1  0
 18 19  2  0
 20 21  1  0
 21 22  1  0
 22 23  1  0
 22 35  1  0
 23 24  2  0
 23 34  1  0
 24 25  1  0
 25 26  2  0
 26 27  1  0
 26 33  1  0
 27 28  1  0
 27 31  1  0
 27 32  1  0
 28 29  2  0
 28 30  1  0
 31 32  1  0
 33 34  2  0
 35 36  1  0
  1 37  1  0
  1 38  1  0
  1 39  1  0
  2 40  1  0
  3 41  1  0
  3 42  1  0
  3 43  1  0
  5 44  1  0
  6 45  1  0
  7 46  1  0
  8 47  1  0
 13 48  1  0
 15 49  1  0
 16 50  1  0
 18 51  1  0
 19 52  1  0
 20 53  1  0
 20 54  1  0
 21 55  1  0
 21 56  1  0
 24 57  1  0
 25 58  1  0
 30 59  1  0
 31 60  1  0
 31 61  1  0
 32 62  1  0
 32 63  1  0
 33 64  1  0
 34 65  1  0
 35 66  1  0
 35 67  1  0
 36 68  1  0
 36 69  1  0
M  END
> <Name>
Molecule

> <AbsoluteEnergy>
64.0062

> <Clean Energy>
200.853

> <ConfNumber>
6

> <MOL_NUMBER>
4

> <RelativeEnergy>
2.48363

> <POSE_NUMBER>
44

> <LibDockScore>
125.6297

> <HotSpots>
3.07,-24.52,50.38,A,43,6
-6.53,-23.32,50.38,A,45,16
-9.33,-29.92,51.19,A,52,32

$$$$
Molecule
  SciTegic05072616053D

 69 73  0  0  0  0            999 V2000
   -5.3258  -24.6036   46.2848 C   0  0  0  1  0  0
   -4.8733  -23.5684   47.3317 C   0  0  0  1  0  0
   -6.0841  -22.8407   47.9452 C   0  0  0  1  0  0
   -3.8368  -22.6002   46.7952 C   0  0  0  1  0  0
   -4.2494  -21.8097   45.7024 C   0  0  0  1  0  0
   -3.4113  -20.8340   45.1529 C   0  0  0  1  0  0
   -2.1451  -20.6196   45.7027 C   0  0  0  1  0  0
   -1.7085  -21.3985   46.7857 C   0  0  0  1  0  0
   -2.5098  -22.4425   47.3321 C   0  0  0  1  0  0
   -1.9868  -23.3511   48.4703 C   0  0  0  1  0  0
   -0.4430  -23.5330   48.5735 C   0  0  0  1  0  0
    0.2717  -23.2766   47.6296 O   0  0  0  1  0  0
    0.1317  -24.0324   49.7404 N   0  0  0  1  0  0
    1.4739  -24.0352   50.1084 C   0  0  0  1  0  0
    1.8317  -24.6192   51.3472 C   0  0  0  1  0  0
    3.1779  -24.6463   51.7501 C   0  0  0  1  0  0
    4.1624  -24.1197   50.9692 N   0  0  0  1  0  0
    3.8453  -23.5454   49.7737 C   0  0  0  1  0  0
    2.5129  -23.4839   49.3191 C   0  0  0  1  0  0
   -2.4082  -24.8302   48.1937 C   0  0  0  1  0  0
   -2.4529  -25.7114   49.4421 C   0  0  0  1  0  0
   -3.3874  -25.1622   50.4552 N   0  0  0  1  0  0
   -4.2770  -26.0147   51.0949 C   0  0  0  1  0  0
   -5.4780  -25.5394   51.6692 C   0  0  0  1  0  0
   -6.3710  -26.4333   52.2852 C   0  0  0  1  0  0
   -6.0828  -27.8120   52.3294 C   0  0  0  1  0  0
   -7.0663  -28.7769   52.9509 C   0  0  0  1  0  0
   -6.7738  -29.1167   54.4047 C   0  0  0  1  0  0
   -7.6958  -29.2676   55.1762 O   0  0  0  1  0  0
   -5.5085  -29.2585   54.7962 O   0  0  0  1  0  0
   -8.5219  -28.7246   52.5139 C   0  0  0  1  0  0
   -7.6526  -29.8826   52.0866 C   0  0  0  1  0  0
   -4.8782  -28.2854   51.7796 C   0  0  0  1  0  0
   -3.9824  -27.3948   51.1683 C   0  0  0  1  0  0
   -3.3596  -23.7019   50.7854 C   0  0  0  1  0  0
   -2.5646  -22.7732   49.8228 C   0  0  0  1  0  0
   -5.8793  -24.0907   45.4983 H   0  0
   -5.9809  -25.3292   46.7669 H   0  0
   -4.4599  -25.1106   45.8591 H   0  0
   -4.3754  -24.1196   48.1294 H   0  0
   -6.7350  -23.5762   48.4180 H   0  0
   -6.6334  -22.3377   47.1494 H   0  0
   -5.7498  -22.1118   48.6835 H   0  0
   -5.2415  -21.9622   45.2775 H   0  0
   -3.7447  -20.2435   44.2995 H   0  0
   -1.4959  -19.8471   45.2905 H   0  0
   -0.7292  -21.1992   47.2209 H   0  0
   -0.5457  -24.4698   50.4437 H   0  0
    1.0624  -25.0483   51.9893 H   0  0
    3.4397  -25.0979   52.7070 H   0  0
    4.6394  -23.1250   49.1566 H   0  0
    2.2825  -23.0136   48.3631 H   0  0
   -1.7097  -25.2685   47.4810 H   0  0
   -3.3933  -24.8339   47.7272 H   0  0
   -1.4541  -25.7750   49.8740 H   0  0
   -2.7768  -26.7140   49.1626 H   0  0
   -5.7126  -24.4755   51.6342 H   0  0
   -7.2919  -26.0578   52.7313 H   0  0
   -5.0407  -28.3546   54.5381 H   0  0
   -8.6707  -28.0125   51.7022 H   0  0
   -9.1932  -29.0037   53.3260 H   0  0
   -7.8611  -30.7790   52.6706 H   0  0
   -7.3374  -29.7871   51.0476 H   0  0
   -4.6394  -29.3478   51.8284 H   0  0
   -3.0506  -27.7711   50.7461 H   0  0
   -2.9508  -23.5860   51.7892 H   0  0
   -4.3880  -23.3441   50.8360 H   0  0
   -3.2021  -21.9232   49.5795 H   0  0
   -1.7352  -22.3438   50.3847 H   0  0
  1  2  1  0
  2  3  1  0
  2  4  1  0
  4  5  2  0
  4  9  1  0
  5  6  1  0
  6  7  2  0
  7  8  1  0
  8  9  2  0
  9 10  1  0
 10 11  1  0
 10 20  1  0
 10 36  1  0
 11 12  2  0
 11 13  1  0
 13 14  1  0
 14 15  2  0
 14 19  1  0
 15 16  1  0
 16 17  2  0
 17 18  1  0
 18 19  2  0
 20 21  1  0
 21 22  1  0
 22 23  1  0
 22 35  1  0
 23 24  2  0
 23 34  1  0
 24 25  1  0
 25 26  2  0
 26 27  1  0
 26 33  1  0
 27 28  1  0
 27 31  1  0
 27 32  1  0
 28 29  2  0
 28 30  1  0
 31 32  1  0
 33 34  2  0
 35 36  1  0
  1 37  1  0
  1 38  1  0
  1 39  1  0
  2 40  1  0
  3 41  1  0
  3 42  1  0
  3 43  1  0
  5 44  1  0
  6 45  1  0
  7 46  1  0
  8 47  1  0
 13 48  1  0
 15 49  1  0
 16 50  1  0
 18 51  1  0
 19 52  1  0
 20 53  1  0
 20 54  1  0
 21 55  1  0
 21 56  1  0
 24 57  1  0
 25 58  1  0
 30 59  1  0
 31 60  1  0
 31 61  1  0
 32 62  1  0
 32 63  1  0
 33 64  1  0
 34 65  1  0
 35 66  1  0
 35 67  1  0
 36 68  1  0
 36 69  1  0
M  END
> <Name>
Molecule

> <AbsoluteEnergy>
78.9179

> <Clean Energy>
200.853

> <ConfNumber>
88

> <MOL_NUMBER>
4

> <RelativeEnergy>
17.3954

> <POSE_NUMBER>
45

> <LibDockScore>
125.1507

> <HotSpots>
-5.53,-22.92,48.98,A,33,3
-3.53,-22.32,46.59,A,20,5
3.07,-24.52,50.38,A,43,19

$$$$
Molecule
  SciTegic05072616053D

 69 73  0  0  0  0            999 V2000
   -8.3075  -28.6197   56.1470 C   0  0  0  1  0  0
   -7.3906  -29.1795   55.0341 C   0  0  0  1  0  0
   -6.8305  -30.5504   55.4629 C   0  0  0  1  0  0
   -8.0162  -29.2631   53.6567 C   0  0  0  1  0  0
   -9.3312  -29.7887   53.5794 C   0  0  0  1  0  0
   -9.9982  -29.9360   52.3583 C   0  0  0  1  0  0
   -9.3603  -29.5692   51.1740 C   0  0  0  1  0  0
   -8.0629  -29.0508   51.2196 C   0  0  0  1  0  0
   -7.3599  -28.8656   52.4391 C   0  0  0  1  0  0
   -5.9497  -28.2722   52.2549 C   0  0  0  1  0  0
   -6.1091  -26.7880   51.8430 C   0  0  0  1  0  0
   -6.8822  -26.1152   52.4909 O   0  0  0  1  0  0
   -5.3949  -26.2286   50.7904 N   0  0  0  1  0  0
   -5.4888  -24.9423   50.2639 C   0  0  0  1  0  0
   -6.3253  -23.9214   50.7768 C   0  0  0  1  0  0
   -6.2979  -22.6356   50.1989 C   0  0  0  1  0  0
   -5.4884  -22.3473   49.1406 N   0  0  0  1  0  0
   -4.6951  -23.3200   48.6143 C   0  0  0  1  0  0
   -4.6806  -24.6191   49.1481 C   0  0  0  1  0  0
   -4.9981  -28.1396   53.4909 C   0  0  0  1  0  0
   -3.6117  -27.5240   53.1408 C   0  0  0  1  0  0
   -3.1135  -28.0099   51.8163 N   0  0  0  1  0  0
   -2.2956  -27.2416   50.9773 C   0  0  0  1  0  0
   -1.9574  -27.6820   49.6738 C   0  0  0  1  0  0
   -1.2338  -26.8612   48.7990 C   0  0  0  1  0  0
   -0.8069  -25.5869   49.2059 C   0  0  0  1  0  0
   -0.0687  -24.6993   48.2297 C   0  0  0  1  0  0
    1.3854  -25.0993   48.0119 C   0  0  0  1  0  0
    1.6154  -26.1042   47.3786 O   0  0  0  1  0  0
    2.3671  -24.3426   48.5070 O   0  0  0  1  0  0
   -0.4773  -23.2400   48.0792 C   0  0  0  1  0  0
   -0.8345  -24.2325   47.0006 C   0  0  0  1  0  0
   -1.0848  -25.1544   50.5143 C   0  0  0  1  0  0
   -1.8086  -25.9789   51.3936 C   0  0  0  1  0  0
   -3.6751  -29.3342   51.4392 C   0  0  0  1  0  0
   -5.2042  -29.2161   51.2337 C   0  0  0  1  0  0
   -7.7334  -28.5056   57.0665 H   0  0
   -9.1325  -29.3110   56.3190 H   0  0
   -8.7027  -27.6506   55.8424 H   0  0
   -6.5873  -28.4511   54.9234 H   0  0
   -7.6557  -31.2415   55.6350 H   0  0
   -6.2566  -30.4360   56.3825 H   0  0
   -6.1847  -30.9435   54.6778 H   0  0
   -9.8369  -30.0865   54.4979 H   0  0
  -11.0120  -30.3357   52.3330 H   0  0
   -9.8705  -29.6860   50.2179 H   0  0
   -7.5730  -28.7788   50.2846 H   0  0
   -4.6782  -26.8707   50.3225 H   0  0
   -6.9888  -24.1290   51.6163 H   0  0
   -6.9386  -21.8543   50.6077 H   0  0
   -4.0581  -23.0861   47.7613 H   0  0
   -4.0437  -25.3821   48.7007 H   0  0
   -5.4809  -27.5160   54.2433 H   0  0
   -4.8452  -29.1264   53.9279 H   0  0
   -2.8925  -27.7947   53.9138 H   0  0
   -3.6983  -26.4378   53.1132 H   0  0
   -2.2651  -28.6751   49.3465 H   0  0
   -1.0004  -27.2145   47.7946 H   0  0
    2.1617  -24.2809   49.5349 H   0  0
    0.3679  -22.6162   47.7884 H   0  0
   -1.3363  -22.9995   48.7057 H   0  0
   -1.8846  -24.5205   47.0503 H   0  0
   -0.1799  -24.1385   46.1341 H   0  0
   -0.7380  -24.1765   50.8483 H   0  0
   -1.9979  -25.6406   52.4123 H   0  0
   -3.2107  -29.6748   50.5138 H   0  0
   -3.4711  -30.0545   52.2314 H   0  0
   -5.6408  -30.2128   51.2975 H   0  0
   -5.3912  -28.8544   50.2226 H   0  0
  1  2  1  0
  2  3  1  0
  2  4  1  0
  4  5  2  0
  4  9  1  0
  5  6  1  0
  6  7  2  0
  7  8  1  0
  8  9  2  0
  9 10  1  0
 10 11  1  0
 10 20  1  0
 10 36  1  0
 11 12  2  0
 11 13  1  0
 13 14  1  0
 14 15  2  0
 14 19  1  0
 15 16  1  0
 16 17  2  0
 17 18  1  0
 18 19  2  0
 20 21  1  0
 21 22  1  0
 22 23  1  0
 22 35  1  0
 23 24  2  0
 23 34  1  0
 24 25  1  0
 25 26  2  0
 26 27  1  0
 26 33  1  0
 27 28  1  0
 27 31  1  0
 27 32  1  0
 28 29  2  0
 28 30  1  0
 31 32  1  0
 33 34  2  0
 35 36  1  0
  1 37  1  0
  1 38  1  0
  1 39  1  0
  2 40  1  0
  3 41  1  0
  3 42  1  0
  3 43  1  0
  5 44  1  0
  6 45  1  0
  7 46  1  0
  8 47  1  0
 13 48  1  0
 15 49  1  0
 16 50  1  0
 18 51  1  0
 19 52  1  0
 20 53  1  0
 20 54  1  0
 21 55  1  0
 21 56  1  0
 24 57  1  0
 25 58  1  0
 30 59  1  0
 31 60  1  0
 31 61  1  0
 32 62  1  0
 32 63  1  0
 33 64  1  0
 34 65  1  0
 35 66  1  0
 35 67  1  0
 36 68  1  0
 36 69  1  0
M  END
> <Name>
Molecule

> <AbsoluteEnergy>
76.0675

> <Clean Energy>
200.853

> <ConfNumber>
68

> <MOL_NUMBER>
4

> <RelativeEnergy>
14.5449

> <POSE_NUMBER>
46

> <LibDockScore>
125.1289

> <HotSpots>
-9.53,-30.12,52.78,A,62,6
-4.93,-23.52,47.59,A,26,18
-0.93,-23.32,46.98,A,25,31

$$$$
Molecule
  SciTegic05072616053D

 69 73  0  0  0  0            999 V2000
    2.5656  -25.4932   51.9429 C   0  0  0  1  0  0
    1.4139  -24.6455   51.3731 C   0  0  0  1  0  0
    1.4929  -23.1876   51.8874 C   0  0  0  1  0  0
    1.3438  -24.7633   49.8640 C   0  0  0  1  0  0
    2.5803  -24.5921   49.1888 C   0  0  0  1  0  0
    2.6760  -24.6196   47.7949 C   0  0  0  1  0  0
    1.5325  -24.8402   47.0317 C   0  0  0  1  0  0
    0.3056  -25.0522   47.6686 C   0  0  0  1  0  0
    0.1616  -25.0387   49.0826 C   0  0  0  1  0  0
   -1.2767  -25.3452   49.5609 C   0  0  0  1  0  0
   -2.2927  -24.8672   48.5074 C   0  0  0  1  0  0
   -3.0218  -25.6732   47.9747 O   0  0  0  1  0  0
   -2.3562  -23.5191   48.1734 N   0  0  0  1  0  0
   -3.1897  -22.9414   47.2249 C   0  0  0  1  0  0
   -4.3823  -23.5548   46.7742 C   0  0  0  1  0  0
   -5.1678  -22.9215   45.7936 C   0  0  0  1  0  0
   -4.8180  -21.7113   45.2732 N   0  0  0  1  0  0
   -3.6836  -21.0932   45.7069 C   0  0  0  1  0  0
   -2.8538  -21.6798   46.6807 C   0  0  0  1  0  0
   -1.3418  -26.8809   49.8216 C   0  0  0  1  0  0
   -2.7020  -27.4752   50.2388 C   0  0  0  1  0  0
   -3.5752  -26.5956   51.0756 N   0  0  0  1  0  0
   -4.7540  -27.1100   51.6199 C   0  0  0  1  0  0
   -4.9249  -28.4972   51.8559 C   0  0  0  1  0  0
   -6.1377  -28.9966   52.3674 C   0  0  0  1  0  0
   -7.1980  -28.1217   52.6624 C   0  0  0  1  0  0
   -8.5110  -28.6580   53.1980 C   0  0  0  1  0  0
   -9.2957  -29.4836   52.1797 C   0  0  0  1  0  0
   -9.3281  -29.1241   51.0245 O   0  0  0  1  0  0
   -9.9341  -30.5843   52.5845 O   0  0  0  1  0  0
   -8.5887  -29.0434   54.6686 C   0  0  0  1  0  0
   -9.3172  -27.8167   54.1778 C   0  0  0  1  0  0
   -7.0330  -26.7413   52.4495 C   0  0  0  1  0  0
   -5.8237  -26.2412   51.9385 C   0  0  0  1  0  0
   -3.2272  -25.1501   51.2697 C   0  0  0  1  0  0
   -1.7776  -24.7523   50.9008 C   0  0  0  1  0  0
    2.5029  -25.4869   53.0311 H   0  0
    3.5136  -25.0502   51.6378 H   0  0
    2.4979  -26.5163   51.5731 H   0  0
    0.4670  -25.0396   51.7422 H   0  0
    2.4470  -22.7576   51.5826 H   0  0
    1.4362  -23.1943   52.9759 H   0  0
    0.6724  -22.5993   51.4766 H   0  0
    3.4846  -24.4340   49.7765 H   0  0
    3.6397  -24.4693   47.3082 H   0  0
    1.5933  -24.8476   45.9434 H   0  0
   -0.5767  -25.2354   47.0553 H   0  0
   -1.6969  -22.8610   48.6998 H   0  0
   -4.6918  -24.5156   47.1856 H   0  0
   -6.0767  -23.4098   45.4421 H   0  0
   -3.4129  -20.1230   45.2904 H   0  0
   -1.9542  -21.1629   47.0148 H   0  0
   -1.0080  -27.3950   48.9203 H   0  0
   -0.6118  -27.1290   50.5921 H   0  0
   -3.2517  -27.7481   49.3380 H   0  0
   -2.5235  -28.4014   50.7850 H   0  0
   -4.1078  -29.1852   51.6388 H   0  0
   -6.2553  -30.0671   52.5356 H   0  0
  -10.5727  -30.2604   53.3525 H   0  0
   -7.6731  -28.7824   55.1993 H   0  0
   -9.2696  -29.8798   54.8267 H   0  0
  -10.3870  -27.9982   54.0746 H   0  0
   -8.7899  -26.9011   54.4457 H   0  0
   -7.8478  -26.0558   52.6822 H   0  0
   -5.7081  -25.1682   51.7853 H   0  0
   -3.4034  -24.8884   52.3130 H   0  0
   -3.9140  -24.5467   50.6762 H   0  0
   -1.7152  -23.6653   50.8498 H   0  0
   -1.1111  -25.0778   51.6995 H   0  0
  1  2  1  0
  2  3  1  0
  2  4  1  0
  4  5  2  0
  4  9  1  0
  5  6  1  0
  6  7  2  0
  7  8  1  0
  8  9  2  0
  9 10  1  0
 10 11  1  0
 10 20  1  0
 10 36  1  0
 11 12  2  0
 11 13  1  0
 13 14  1  0
 14 15  2  0
 14 19  1  0
 15 16  1  0
 16 17  2  0
 17 18  1  0
 18 19  2  0
 20 21  1  0
 21 22  1  0
 22 23  1  0
 22 35  1  0
 23 24  2  0
 23 34  1  0
 24 25  1  0
 25 26  2  0
 26 27  1  0
 26 33  1  0
 27 28  1  0
 27 31  1  0
 27 32  1  0
 28 29  2  0
 28 30  1  0
 31 32  1  0
 33 34  2  0
 35 36  1  0
  1 37  1  0
  1 38  1  0
  1 39  1  0
  2 40  1  0
  3 41  1  0
  3 42  1  0
  3 43  1  0
  5 44  1  0
  6 45  1  0
  7 46  1  0
  8 47  1  0
 13 48  1  0
 15 49  1  0
 16 50  1  0
 18 51  1  0
 19 52  1  0
 20 53  1  0
 20 54  1  0
 21 55  1  0
 21 56  1  0
 24 57  1  0
 25 58  1  0
 30 59  1  0
 31 60  1  0
 31 61  1  0
 32 62  1  0
 32 63  1  0
 33 64  1  0
 34 65  1  0
 35 66  1  0
 35 67  1  0
 36 68  1  0
 36 69  1  0
M  END
> <Name>
Molecule

> <AbsoluteEnergy>
74.2058

> <Clean Energy>
200.853

> <ConfNumber>
59

> <MOL_NUMBER>
4

> <RelativeEnergy>
12.6833

> <POSE_NUMBER>
47

> <LibDockScore>
125.1243

> <HotSpots>
1.87,-25.32,48.38,A,30,7
-5.13,-22.92,46.19,A,18,16
-6.33,-26.32,51.98,A,57,34

$$$$
Molecule
  SciTegic05072616053D

 69 73  0  0  0  0            999 V2000
   -5.3196  -32.2293   54.3247 C   0  0  0  1  0  0
   -5.0488  -30.7570   54.6903 C   0  0  0  1  0  0
   -4.3514  -30.6445   56.0614 C   0  0  0  1  0  0
   -6.3107  -29.9224   54.6201 C   0  0  0  1  0  0
   -7.3132  -30.2401   55.5652 C   0  0  0  1  0  0
   -8.5370  -29.5633   55.5875 C   0  0  0  1  0  0
   -8.7855  -28.5571   54.6540 C   0  0  0  1  0  0
   -7.8073  -28.2211   53.7107 C   0  0  0  1  0  0
   -6.5410  -28.8657   53.6746 C   0  0  0  1  0  0
   -5.5001  -28.4187   52.6327 C   0  0  0  1  0  0
   -5.9286  -27.1547   51.8403 C   0  0  0  1  0  0
   -7.0048  -27.1388   51.2855 O   0  0  0  1  0  0
   -5.0934  -26.0455   51.7591 N   0  0  0  1  0  0
   -5.3927  -24.7860   51.2480 C   0  0  0  1  0  0
   -4.3666  -23.8177   51.1716 C   0  0  0  1  0  0
   -4.6379  -22.5409   50.6452 C   0  0  0  1  0  0
   -5.8803  -22.2072   50.1959 N   0  0  0  1  0  0
   -6.8859  -23.1239   50.2555 C   0  0  0  1  0  0
   -6.6746  -24.4146   50.7741 C   0  0  0  1  0  0
   -4.0940  -28.0992   53.2870 C   0  0  0  1  0  0
   -2.8862  -28.5324   52.4321 C   0  0  0  1  0  0
   -3.2116  -28.3244   50.9975 N   0  0  0  1  0  0
   -2.6956  -27.2676   50.2422 C   0  0  0  1  0  0
   -2.8097  -27.2578   48.8315 C   0  0  0  1  0  0
   -2.3782  -26.1576   48.0775 C   0  0  0  1  0  0
   -1.8187  -25.0397   48.7156 C   0  0  0  1  0  0
   -1.4308  -23.8315   47.9003 C   0  0  0  1  0  0
   -2.6346  -22.9584   47.5736 C   0  0  0  1  0  0
   -3.6602  -23.4874   47.2110 O   0  0  0  1  0  0
   -2.5475  -21.6339   47.6987 O   0  0  0  1  0  0
   -0.0752  -23.1740   48.1101 C   0  0  0  1  0  0
   -0.3374  -23.9637   46.8508 C   0  0  0  1  0  0
   -1.6408  -25.0543   50.1088 C   0  0  0  1  0  0
   -2.0658  -26.1613   50.8632 C   0  0  0  1  0  0
   -4.2277  -29.3000   50.4984 C   0  0  0  1  0  0
   -5.3286  -29.5607   51.5635 C   0  0  0  1  0  0
   -5.9537  -32.6711   55.0934 H   0  0
   -4.3703  -32.7642   54.2956 H   0  0
   -5.8122  -32.2924   53.3544 H   0  0
   -4.3644  -30.3496   53.9462 H   0  0
   -3.4082  -31.1894   56.0214 H   0  0
   -4.9916  -31.0963   56.8191 H   0  0
   -4.1668  -29.5984   56.3058 H   0  0
   -7.1281  -31.0303   56.2928 H   0  0
   -9.2922  -29.8207   56.3301 H   0  0
   -9.7410  -28.0326   54.6590 H   0  0
   -8.0235  -27.4407   52.9810 H   0  0
   -4.1003  -26.1763   52.1352 H   0  0
   -3.3630  -24.0600   51.5210 H   0  0
   -3.8370  -21.8032   50.5959 H   0  0
   -7.8771  -22.8513   49.8931 H   0  0
   -7.4974  -25.1286   50.8111 H   0  0
   -4.0339  -28.5972   54.2547 H   0  0
   -4.0266  -27.0268   53.4698 H   0  0
   -2.6732  -29.5868   52.6079 H   0  0
   -2.0164  -27.9321   52.6990 H   0  0
   -3.2403  -28.1203   48.3228 H   0  0
   -2.4775  -26.1704   46.9921 H   0  0
   -1.7326  -21.3623   47.0948 H   0  0
    0.5365  -23.7349   48.8167 H   0  0
   -0.1197  -22.1002   47.9283 H   0  0
   -0.5209  -23.3109   45.9974 H   0  0
    0.1337  -24.9460   46.8863 H   0  0
   -1.1720  -24.2051   50.6060 H   0  0
   -1.9085  -26.1686   51.9418 H   0  0
   -3.7339  -30.2409   50.2556 H   0  0
   -4.6902  -28.9050   49.5939 H   0  0
   -6.2798  -29.7075   51.0519 H   0  0
   -5.0988  -30.4922   52.0808 H   0  0
  1  2  1  0
  2  3  1  0
  2  4  1  0
  4  5  2  0
  4  9  1  0
  5  6  1  0
  6  7  2  0
  7  8  1  0
  8  9  2  0
  9 10  1  0
 10 11  1  0
 10 20  1  0
 10 36  1  0
 11 12  2  0
 11 13  1  0
 13 14  1  0
 14 15  2  0
 14 19  1  0
 15 16  1  0
 16 17  2  0
 17 18  1  0
 18 19  2  0
 20 21  1  0
 21 22  1  0
 22 23  1  0
 22 35  1  0
 23 24  2  0
 23 34  1  0
 24 25  1  0
 25 26  2  0
 26 27  1  0
 26 33  1  0
 27 28  1  0
 27 31  1  0
 27 32  1  0
 28 29  2  0
 28 30  1  0
 31 32  1  0
 33 34  2  0
 35 36  1  0
  1 37  1  0
  1 38  1  0
  1 39  1  0
  2 40  1  0
  3 41  1  0
  3 42  1  0
  3 43  1  0
  5 44  1  0
  6 45  1  0
  7 46  1  0
  8 47  1  0
 13 48  1  0
 15 49  1  0
 16 50  1  0
 18 51  1  0
 19 52  1  0
 20 53  1  0
 20 54  1  0
 21 55  1  0
 21 56  1  0
 24 57  1  0
 25 58  1  0
 30 59  1  0
 31 60  1  0
 31 61  1  0
 32 62  1  0
 32 63  1  0
 33 64  1  0
 34 65  1  0
 35 66  1  0
 35 67  1  0
 36 68  1  0
 36 69  1  0
M  END
> <Name>
Molecule

> <AbsoluteEnergy>
70.6136

> <Clean Energy>
200.853

> <ConfNumber>
38

> <MOL_NUMBER>
4

> <RelativeEnergy>
9.09107

> <POSE_NUMBER>
48

> <LibDockScore>
124.755

> <HotSpots>
-8.73,-28.12,54.38,A,70,6
-5.13,-23.32,51.38,A,54,15
1.87,-24.92,46.78,A,22,31

$$$$
Molecule
  SciTegic05072616053D

 69 73  0  0  0  0            999 V2000
    1.4041  -26.1195   46.6495 C   0  0  0  1  0  0
    0.5466  -24.9991   47.2697 C   0  0  0  1  0  0
    0.3344  -23.8388   46.2792 C   0  0  0  1  0  0
    1.1133  -24.5178   48.5859 C   0  0  0  1  0  0
    2.4473  -24.0521   48.5798 C   0  0  0  1  0  0
    3.0626  -23.5942   49.7512 C   0  0  0  1  0  0
    2.3496  -23.5960   50.9533 C   0  0  0  1  0  0
    1.0240  -24.0481   50.9802 C   0  0  0  1  0  0
    0.3709  -24.5136   49.8101 C   0  0  0  1  0  0
   -1.0862  -24.9897   49.8869 C   0  0  0  1  0  0
   -1.9146  -24.4917   48.6887 C   0  0  0  1  0  0
   -2.5324  -25.3009   48.0319 O   0  0  0  1  0  0
   -1.9597  -23.1420   48.3602 N   0  0  0  1  0  0
   -2.7597  -22.5711   47.3796 C   0  0  0  1  0  0
   -2.3654  -21.3595   46.7677 C   0  0  0  1  0  0
   -3.1743  -20.7831   45.7694 C   0  0  0  1  0  0
   -4.3398  -21.3672   45.3729 N   0  0  0  1  0  0
   -4.7449  -22.5305   45.9576 C   0  0  0  1  0  0
   -3.9838  -23.1491   46.9662 C   0  0  0  1  0  0
   -1.1256  -26.5601   50.0162 C   0  0  0  1  0  0
   -1.9935  -27.1501   51.1562 C   0  0  0  1  0  0
   -3.3056  -26.4558   51.3268 N   0  0  0  1  0  0
   -4.4863  -27.1412   51.6146 C   0  0  0  1  0  0
   -5.7140  -26.4453   51.7053 C   0  0  0  1  0  0
   -6.8966  -27.1133   52.0619 C   0  0  0  1  0  0
   -6.8799  -28.4969   52.3254 C   0  0  0  1  0  0
   -8.1352  -29.2257   52.7698 C   0  0  0  1  0  0
   -8.2998  -29.2842   54.2980 C   0  0  0  1  0  0
   -7.4965  -28.7036   54.9945 O   0  0  0  1  0  0
   -9.3115  -29.9668   54.8517 O   0  0  0  1  0  0
   -8.5747  -30.4228   51.9387 C   0  0  0  1  0  0
   -9.3858  -29.1497   51.9050 C   0  0  0  1  0  0
   -5.6754  -29.2091   52.1866 C   0  0  0  1  0  0
   -4.4898  -28.5395   51.8386 C   0  0  0  1  0  0
   -3.2941  -24.9688   51.2184 C   0  0  0  1  0  0
   -1.8613  -24.4173   51.1149 C   0  0  0  1  0  0
    2.3698  -25.7020   46.3646 H   0  0
    0.9006  -26.4898   45.7565 H   0  0
    1.5434  -26.9308   47.3640 H   0  0
   -0.4333  -25.4248   47.4856 H   0  0
   -0.1608  -24.2267   45.3890 H   0  0
    1.3084  -23.4389   45.9972 H   0  0
   -0.2734  -23.0570   46.7347 H   0  0
    3.0082  -24.0493   47.6452 H   0  0
    4.0925  -23.2381   49.7257 H   0  0
    2.8249  -23.2457   51.8696 H   0  0
    0.4802  -24.0420   51.9248 H   0  0
   -1.3211  -22.4844   48.9121 H   0  0
   -1.4375  -20.8725   47.0678 H   0  0
   -2.8611  -19.8488   45.3034 H   0  0
   -5.6790  -22.9913   45.6365 H   0  0
   -4.3360  -24.0714   47.4282 H   0  0
   -0.1049  -26.9212   50.1423 H   0  0
   -1.4761  -26.9741   49.0707 H   0  0
   -1.4389  -27.0879   52.0925 H   0  0
   -2.1779  -28.2045   50.9506 H   0  0
   -5.7427  -25.3760   51.4956 H   0  0
   -7.8320  -26.5585   52.1351 H   0  0
   -9.2126  -30.9371   54.4628 H   0  0
   -9.0490  -31.1858   52.5560 H   0  0
   -7.9626  -30.5338   51.0436 H   0  0
   -9.2065  -28.5825   50.9916 H   0  0
  -10.2919  -29.2338   52.5051 H   0  0
   -5.6612  -30.2867   52.3499 H   0  0
   -3.5620  -29.1031   51.7399 H   0  0
   -3.7787  -24.5417   52.0963 H   0  0
   -3.8567  -24.6705   50.3338 H   0  0
   -1.9045  -23.3311   51.0347 H   0  0
   -1.3183  -24.6673   52.0264 H   0  0
  1  2  1  0
  2  3  1  0
  2  4  1  0
  4  5  2  0
  4  9  1  0
  5  6  1  0
  6  7  2  0
  7  8  1  0
  8  9  2  0
  9 10  1  0
 10 11  1  0
 10 20  1  0
 10 36  1  0
 11 12  2  0
 11 13  1  0
 13 14  1  0
 14 15  2  0
 14 19  1  0
 15 16  1  0
 16 17  2  0
 17 18  1  0
 18 19  2  0
 20 21  1  0
 21 22  1  0
 22 23  1  0
 22 35  1  0
 23 24  2  0
 23 34  1  0
 24 25  1  0
 25 26  2  0
 26 27  1  0
 26 33  1  0
 27 28  1  0
 27 31  1  0
 27 32  1  0
 28 29  2  0
 28 30  1  0
 31 32  1  0
 33 34  2  0
 35 36  1  0
  1 37  1  0
  1 38  1  0
  1 39  1  0
  2 40  1  0
  3 41  1  0
  3 42  1  0
  3 43  1  0
  5 44  1  0
  6 45  1  0
  7 46  1  0
  8 47  1  0
 13 48  1  0
 15 49  1  0
 16 50  1  0
 18 51  1  0
 19 52  1  0
 20 53  1  0
 20 54  1  0
 21 55  1  0
 21 56  1  0
 24 57  1  0
 25 58  1  0
 30 59  1  0
 31 60  1  0
 31 61  1  0
 32 62  1  0
 32 63  1  0
 33 64  1  0
 34 65  1  0
 35 66  1  0
 35 67  1  0
 36 68  1  0
 36 69  1  0
M  END
> <Name>
Molecule

> <AbsoluteEnergy>
66.6999

> <Clean Energy>
200.853

> <ConfNumber>
15

> <MOL_NUMBER>
4

> <RelativeEnergy>
5.17739

> <POSE_NUMBER>
49

> <LibDockScore>
124.5592

> <HotSpots>
2.67,-23.92,48.98,A,32,6
-2.53,-21.12,45.98,A,16,15
-9.33,-29.92,51.19,A,52,31

$$$$
Molecule
  SciTegic05072616053D

 69 73  0  0  0  0            999 V2000
   -5.7212  -24.1922   46.2617 C   0  0  0  1  0  0
   -5.1415  -23.5812   47.5529 C   0  0  0  1  0  0
   -6.1861  -22.7107   48.2785 C   0  0  0  1  0  0
   -3.8479  -22.8364   47.3123 C   0  0  0  1  0  0
   -3.8217  -22.0425   46.1456 C   0  0  0  1  0  0
   -2.7253  -21.2310   45.8337 C   0  0  0  1  0  0
   -1.6338  -21.1887   46.7009 C   0  0  0  1  0  0
   -1.6303  -21.9819   47.8582 C   0  0  0  1  0  0
   -2.6994  -22.8744   48.1759 C   0  0  0  1  0  0
   -2.5886  -23.7962   49.4183 C   0  0  0  1  0  0
   -1.1615  -23.8190   50.0480 C   0  0  0  1  0  0
   -1.0545  -23.7503   51.2531 O   0  0  0  1  0  0
    0.0038  -23.9220   49.2761 N   0  0  0  1  0  0
    1.3003  -23.9850   49.7801 C   0  0  0  1  0  0
    1.5534  -24.4907   51.0739 C   0  0  0  1  0  0
    2.8694  -24.5473   51.5661 C   0  0  0  1  0  0
    3.9295  -24.1197   50.8184 N   0  0  0  1  0  0
    3.7120  -23.6352   49.5611 C   0  0  0  1  0  0
    2.4144  -23.5639   49.0108 C   0  0  0  1  0  0
   -3.6511  -23.3100   50.4899 C   0  0  0  1  0  0
   -4.8800  -24.2023   50.8249 C   0  0  0  1  0  0
   -4.5942  -25.6645   50.9206 N   0  0  0  1  0  0
   -5.5000  -26.5422   51.5532 C   0  0  0  1  0  0
   -5.1097  -27.8602   51.8918 C   0  0  0  1  0  0
   -5.9990  -28.7463   52.5334 C   0  0  0  1  0  0
   -7.2997  -28.3329   52.8874 C   0  0  0  1  0  0
   -8.2567  -29.2655   53.6354 C   0  0  0  1  0  0
   -9.4027  -29.8651   52.7933 C   0  0  0  1  0  0
   -9.4294  -29.6500   51.6010 O   0  0  0  1  0  0
  -10.3690  -30.6087   53.3652 O   0  0  0  1  0  0
   -7.7189  -30.0823   54.8075 C   0  0  0  1  0  0
   -8.5937  -28.8805   55.0708 C   0  0  0  1  0  0
   -7.7066  -27.0285   52.5483 C   0  0  0  1  0  0
   -6.8245  -26.1485   51.8862 C   0  0  0  1  0  0
   -3.2960  -26.1421   50.3372 C   0  0  0  1  0  0
   -2.8095  -25.3224   49.1170 C   0  0  0  1  0  0
   -6.0409  -23.3831   45.6051 H   0  0
   -6.5867  -24.8018   46.5214 H   0  0
   -4.9701  -24.8039   45.7619 H   0  0
   -4.8925  -24.4116   48.2136 H   0  0
   -7.0483  -23.3309   48.5238 H   0  0
   -6.5025  -21.9122   47.6074 H   0  0
   -5.7600  -22.2871   49.1880 H   0  0
   -4.6772  -22.0620   45.4705 H   0  0
   -2.7243  -20.6365   44.9201 H   0  0
   -0.7854  -20.5409   46.4801 H   0  0
   -0.7817  -21.9147   48.5390 H   0  0
   -0.1123  -23.9549   48.2129 H   0  0
    0.7263  -24.8382   51.6929 H   0  0
    3.0475  -24.9412   52.5667 H   0  0
    4.5608  -23.2952   48.9678 H   0  0
    2.2693  -23.1867   47.9985 H   0  0
   -4.0247  -22.3359   50.1742 H   0  0
   -3.1206  -23.1123   51.4214 H   0  0
   -5.6434  -24.0479   50.0623 H   0  0
   -5.3055  -23.8698   51.7717 H   0  0
   -4.1012  -28.1968   51.6516 H   0  0
   -5.6772  -29.7631   52.7585 H   0  0
  -10.7603  -29.9870   54.1154 H   0  0
   -6.6678  -29.8645   54.9967 H   0  0
   -8.2691  -31.0154   54.9286 H   0  0
   -9.6101  -29.1725   55.3348 H   0  0
   -8.0094  -28.0217   55.4013 H   0  0
   -8.7134  -26.6950   52.7998 H   0  0
   -7.1656  -25.1468   51.6249 H   0  0
   -3.4078  -27.1842   50.0377 H   0  0
   -2.5299  -26.1069   51.1117 H   0  0
   -1.8735  -25.7504   48.7581 H   0  0
   -3.5408  -25.4205   48.3147 H   0  0
  1  2  1  0
  2  3  1  0
  2  4  1  0
  4  5  2  0
  4  9  1  0
  5  6  1  0
  6  7  2  0
  7  8  1  0
  8  9  2  0
  9 10  1  0
 10 11  1  0
 10 20  1  0
 10 36  1  0
 11 12  2  0
 11 13  1  0
 13 14  1  0
 14 15  2  0
 14 19  1  0
 15 16  1  0
 16 17  2  0
 17 18  1  0
 18 19  2  0
 20 21  1  0
 21 22  1  0
 22 23  1  0
 22 35  1  0
 23 24  2  0
 23 34  1  0
 24 25  1  0
 25 26  2  0
 26 27  1  0
 26 33  1  0
 27 28  1  0
 27 31  1  0
 27 32  1  0
 28 29  2  0
 28 30  1  0
 31 32  1  0
 33 34  2  0
 35 36  1  0
  1 37  1  0
  1 38  1  0
  1 39  1  0
  2 40  1  0
  3 41  1  0
  3 42  1  0
  3 43  1  0
  5 44  1  0
  6 45  1  0
  7 46  1  0
  8 47  1  0
 13 48  1  0
 15 49  1  0
 16 50  1  0
 18 51  1  0
 19 52  1  0
 20 53  1  0
 20 54  1  0
 21 55  1  0
 21 56  1  0
 24 57  1  0
 25 58  1  0
 30 59  1  0
 31 60  1  0
 31 61  1  0
 32 62  1  0
 32 63  1  0
 33 64  1  0
 34 65  1  0
 35 66  1  0
 35 67  1  0
 36 68  1  0
 36 69  1  0
M  END
> <Name>
Molecule

> <AbsoluteEnergy>
79.3902

> <Clean Energy>
200.853

> <ConfNumber>
94

> <MOL_NUMBER>
4

> <RelativeEnergy>
17.8677

> <POSE_NUMBER>
50

> <LibDockScore>
123.6493

> <HotSpots>
-5.13,-22.92,46.19,A,18,5
2.67,-22.92,49.98,A,39,18
-5.93,-24.72,51.19,A,53,21

$$$$
Molecule
  SciTegic05072616053D

 69 73  0  0  0  0            999 V2000
   -6.3328  -31.9109   51.5946 C   0  0  0  1  0  0
   -5.7355  -30.9844   52.6729 C   0  0  0  1  0  0
   -5.3353  -31.7797   53.9304 C   0  0  0  1  0  0
   -6.6577  -29.8301   53.0102 C   0  0  0  1  0  0
   -7.9014  -30.1830   53.5830 C   0  0  0  1  0  0
   -8.8432  -29.2138   53.9414 C   0  0  0  1  0  0
   -8.5557  -27.8641   53.7380 C   0  0  0  1  0  0
   -7.3297  -27.4876   53.1766 C   0  0  0  1  0  0
   -6.3505  -28.4434   52.7905 C   0  0  0  1  0  0
   -5.0296  -27.9538   52.1740 C   0  0  0  1  0  0
   -4.9879  -26.4103   51.9965 C   0  0  0  1  0  0
   -4.4376  -25.7416   52.8445 O   0  0  0  1  0  0
   -5.5450  -25.7796   50.8889 N   0  0  0  1  0  0
   -5.4645  -24.4272   50.5710 C   0  0  0  1  0  0
   -6.1323  -23.9578   49.4183 C   0  0  0  1  0  0
   -6.0455  -22.6013   49.0568 C   0  0  0  1  0  0
   -5.3289  -21.7122   49.7998 N   0  0  0  1  0  0
   -4.6902  -22.1361   50.9255 C   0  0  0  1  0  0
   -4.7441  -23.4815   51.3390 C   0  0  0  1  0  0
   -4.7348  -28.6601   50.7863 C   0  0  0  1  0  0
   -3.2414  -28.9450   50.5231 C   0  0  0  1  0  0
   -2.4375  -27.8425   51.1039 N   0  0  0  1  0  0
   -1.8480  -26.8557   50.3187 C   0  0  0  1  0  0
   -1.8571  -26.9462   48.9074 C   0  0  0  1  0  0
   -1.3481  -25.9000   48.1179 C   0  0  0  1  0  0
   -0.8124  -24.7524   48.7273 C   0  0  0  1  0  0
   -0.3251  -23.5937   47.8928 C   0  0  0  1  0  0
   -1.4043  -22.5342   47.7050 C   0  0  0  1  0  0
   -1.5676  -22.0414   46.6130 O   0  0  0  1  0  0
   -2.1484  -22.1797   48.7538 O   0  0  0  1  0  0
    0.6895  -23.8364   46.7855 C   0  0  0  1  0  0
    1.1120  -23.1225   48.0465 C   0  0  0  1  0  0
   -0.7430  -24.6793   50.1281 C   0  0  0  1  0  0
   -1.2501  -25.7212   50.9158 C   0  0  0  1  0  0
   -2.4389  -27.8414   52.5978 C   0  0  0  1  0  0
   -3.8312  -28.2603   53.1520 C   0  0  0  1  0  0
   -7.2113  -32.4076   52.0066 H   0  0
   -5.5906  -32.6636   51.3289 H   0  0
   -6.6105  -31.3338   50.7126 H   0  0
   -4.8289  -30.5468   52.2548 H   0  0
   -4.5997  -32.5333   53.6492 H   0  0
   -6.2203  -32.2772   54.3270 H   0  0
   -4.9154  -31.1114   54.6821 H   0  0
   -8.1313  -31.2355   53.7491 H   0  0
   -9.7969  -29.5113   54.3774 H   0  0
   -9.2850  -27.1032   54.0159 H   0  0
   -7.1192  -26.4281   53.0309 H   0  0
   -6.0929  -26.3993   50.2102 H   0  0
   -6.7155  -24.6475   48.8082 H   0  0
   -6.5629  -22.2538   48.1626 H   0  0
   -4.1247  -21.4183   51.5197 H   0  0
   -4.2318  -23.7938   52.2490 H   0  0
   -5.2823  -29.6018   50.7479 H   0  0
   -5.1174  -28.0312   49.9824 H   0  0
   -2.9611  -29.8877   50.9931 H   0  0
   -3.0628  -28.9999   49.4492 H   0  0
   -2.2630  -27.8363   48.4267 H   0  0
   -1.3690  -25.9791   47.0310 H   0  0
   -1.4620  -21.8668   49.4842 H   0  0
    0.5513  -23.1417   45.9570 H   0  0
    1.0301  -24.8718   46.7758 H   0  0
    1.6792  -23.7769   48.7084 H   0  0
    1.1989  -22.0473   47.8903 H   0  0
   -0.2928  -23.8084   50.6045 H   0  0
   -1.1831  -25.6568   52.0018 H   0  0
   -1.6835  -28.5395   52.9586 H   0  0
   -2.1948  -26.8420   52.9579 H   0  0
   -4.0043  -27.7408   54.0945 H   0  0
   -3.8157  -29.3287   53.3674 H   0  0
  1  2  1  0
  2  3  1  0
  2  4  1  0
  4  5  2  0
  4  9  1  0
  5  6  1  0
  6  7  2  0
  7  8  1  0
  8  9  2  0
  9 10  1  0
 10 11  1  0
 10 20  1  0
 10 36  1  0
 11 12  2  0
 11 13  1  0
 13 14  1  0
 14 15  2  0
 14 19  1  0
 15 16  1  0
 16 17  2  0
 17 18  1  0
 18 19  2  0
 20 21  1  0
 21 22  1  0
 22 23  1  0
 22 35  1  0
 23 24  2  0
 23 34  1  0
 24 25  1  0
 25 26  2  0
 26 27  1  0
 26 33  1  0
 27 28  1  0
 27 31  1  0
 27 32  1  0
 28 29  2  0
 28 30  1  0
 31 32  1  0
 33 34  2  0
 35 36  1  0
  1 37  1  0
  1 38  1  0
  1 39  1  0
  2 40  1  0
  3 41  1  0
  3 42  1  0
  3 43  1  0
  5 44  1  0
  6 45  1  0
  7 46  1  0
  8 47  1  0
 13 48  1  0
 15 49  1  0
 16 50  1  0
 18 51  1  0
 19 52  1  0
 20 53  1  0
 20 54  1  0
 21 55  1  0
 21 56  1  0
 24 57  1  0
 25 58  1  0
 30 59  1  0
 31 60  1  0
 31 61  1  0
 32 62  1  0
 32 63  1  0
 33 64  1  0
 34 65  1  0
 35 66  1  0
 35 67  1  0
 36 68  1  0
 36 69  1  0
M  END
> <Name>
Molecule

> <AbsoluteEnergy>
72.0334

> <Clean Energy>
200.853

> <ConfNumber>
48

> <MOL_NUMBER>
4

> <RelativeEnergy>
10.5109

> <POSE_NUMBER>
51

> <LibDockScore>
122.4919

> <HotSpots>
-9.53,-30.12,52.78,A,62,6
-7.93,-28.32,52.38,A,59,8
-5.53,-22.92,48.98,A,33,16

$$$$
Molecule
  SciTegic05072616053D

 69 73  0  0  0  0            999 V2000
   -5.3134  -21.6045   45.2958 C   0  0  0  1  0  0
   -4.7870  -22.6336   46.3142 C   0  0  0  1  0  0
   -4.9179  -24.0739   45.7854 C   0  0  0  1  0  0
   -3.3755  -22.3366   46.7716 C   0  0  0  1  0  0
   -2.4673  -21.9355   45.7686 C   0  0  0  1  0  0
   -1.1381  -21.6276   46.0714 C   0  0  0  1  0  0
   -0.6895  -21.7216   47.3911 C   0  0  0  1  0  0
   -1.5682  -22.1293   48.4018 C   0  0  0  1  0  0
   -2.9233  -22.4498   48.1302 C   0  0  0  1  0  0
   -3.8345  -22.9167   49.2695 C   0  0  0  1  0  0
   -3.6532  -24.4330   49.4658 C   0  0  0  1  0  0
   -4.4252  -25.1941   48.9234 O   0  0  0  1  0  0
   -2.6498  -24.9304   50.2885 N   0  0  0  1  0  0
   -2.3696  -26.2781   50.4711 C   0  0  0  1  0  0
   -2.4963  -27.2402   49.4429 C   0  0  0  1  0  0
   -2.3307  -28.6048   49.7423 C   0  0  0  1  0  0
   -2.0187  -29.0259   50.9984 N   0  0  0  1  0  0
   -1.8180  -28.1105   51.9863 C   0  0  0  1  0  0
   -1.9766  -26.7316   51.7499 C   0  0  0  1  0  0
   -5.3308  -22.5046   49.0028 C   0  0  0  1  0  0
   -6.3486  -22.9668   50.0907 C   0  0  0  1  0  0
   -5.6316  -23.4334   51.3116 N   0  0  0  1  0  0
   -5.7824  -24.7255   51.8120 C   0  0  0  1  0  0
   -6.8446  -25.5600   51.3987 C   0  0  0  1  0  0
   -6.8298  -26.9330   51.7070 C   0  0  0  1  0  0
   -5.7511  -27.4884   52.4257 C   0  0  0  1  0  0
   -5.5943  -28.9873   52.5985 C   0  0  0  1  0  0
   -5.1048  -29.4125   53.9767 C   0  0  0  1  0  0
   -3.9312  -29.6718   54.1307 O   0  0  0  1  0  0
   -5.9782  -29.4901   54.9770 O   0  0  0  1  0  0
   -4.9969  -29.7264   51.4095 C   0  0  0  1  0  0
   -6.4263  -29.9865   51.8055 C   0  0  0  1  0  0
   -4.7823  -26.6261   52.9670 C   0  0  0  1  0  0
   -4.8173  -25.2552   52.6955 C   0  0  0  1  0  0
   -4.6010  -22.4772   51.7835 C   0  0  0  1  0  0
   -3.5548  -22.2131   50.6608 C   0  0  0  1  0  0
   -6.3612  -21.8241   45.0908 H   0  0
   -4.7433  -21.7075   44.3725 H   0  0
   -5.2119  -20.5929   45.6888 H   0  0
   -5.4222  -22.5444   47.1955 H   0  0
   -4.3512  -24.1556   44.8579 H   0  0
   -5.9691  -24.2723   45.5762 H   0  0
   -4.5405  -24.7855   46.5198 H   0  0
   -2.8097  -21.8644   44.7362 H   0  0
   -0.4547  -21.3156   45.2816 H   0  0
    0.3447  -21.4775   47.6338 H   0  0
   -1.2012  -22.2025   49.4255 H   0  0
   -2.0488  -24.2228   50.8205 H   0  0
   -2.7211  -26.9263   48.4236 H   0  0
   -2.4552  -29.3424   48.9495 H   0  0
   -1.5287  -28.4521   52.9801 H   0  0
   -1.7965  -26.0157   52.5518 H   0  0
   -5.6403  -22.9140   48.0412 H   0  0
   -5.3836  -21.4193   48.9161 H   0  0
   -7.0006  -22.1335   50.3525 H   0  0
   -6.9552  -23.7819   49.6961 H   0  0
   -7.6793  -25.1386   50.8385 H   0  0
   -7.6554  -27.5697   51.3890 H   0  0
   -6.7208  -30.1517   54.6403 H   0  0
   -4.3367  -30.5321   51.7304 H   0  0
   -4.9322  -29.0836   50.5316 H   0  0
   -7.1272  -29.4832   51.1395 H   0  0
   -6.5314  -30.9308   52.3397 H   0  0
   -3.9960  -27.0301   53.6047 H   0  0
   -4.0945  -24.5909   53.1692 H   0  0
   -4.0964  -22.8904   52.6568 H   0  0
   -5.0794  -21.5374   52.0593 H   0  0
   -3.4878  -21.1373   50.4987 H   0  0
   -2.5762  -22.5320   51.0197 H   0  0
  1  2  1  0
  2  3  1  0
  2  4  1  0
  4  5  2  0
  4  9  1  0
  5  6  1  0
  6  7  2  0
  7  8  1  0
  8  9  2  0
  9 10  1  0
 10 11  1  0
 10 20  1  0
 10 36  1  0
 11 12  2  0
 11 13  1  0
 13 14  1  0
 14 15  2  0
 14 19  1  0
 15 16  1  0
 16 17  2  0
 17 18  1  0
 18 19  2  0
 20 21  1  0
 21 22  1  0
 22 23  1  0
 22 35  1  0
 23 24  2  0
 23 34  1  0
 24 25  1  0
 25 26  2  0
 26 27  1  0
 26 33  1  0
 27 28  1  0
 27 31  1  0
 27 32  1  0
 28 29  2  0
 28 30  1  0
 31 32  1  0
 33 34  2  0
 35 36  1  0
  1 37  1  0
  1 38  1  0
  1 39  1  0
  2 40  1  0
  3 41  1  0
  3 42  1  0
  3 43  1  0
  5 44  1  0
  6 45  1  0
  7 46  1  0
  8 47  1  0
 13 48  1  0
 15 49  1  0
 16 50  1  0
 18 51  1  0
 19 52  1  0
 20 53  1  0
 20 54  1  0
 21 55  1  0
 21 56  1  0
 24 57  1  0
 25 58  1  0
 30 59  1  0
 31 60  1  0
 31 61  1  0
 32 62  1  0
 32 63  1  0
 33 64  1  0
 34 65  1  0
 35 66  1  0
 35 67  1  0
 36 68  1  0
 36 69  1  0
M  END
> <Name>
Molecule

> <AbsoluteEnergy>
76.6229

> <Clean Energy>
200.853

> <ConfNumber>
72

> <MOL_NUMBER>
4

> <RelativeEnergy>
15.1004

> <POSE_NUMBER>
52

> <LibDockScore>
122.417

> <HotSpots>
0.27,-22.52,46.78,A,23,7
-4.73,-22.32,50.38,A,46,21
-7.93,-28.32,52.38,A,59,32

$$$$
Molecule
  SciTegic05072616053D

 69 73  0  0  0  0            999 V2000
    1.1710  -26.1400   46.8628 C   0  0  0  1  0  0
    0.3642  -25.0528   47.5992 C   0  0  0  1  0  0
    0.1837  -23.7971   46.7256 C   0  0  0  1  0  0
    0.9650  -24.7189   48.9455 C   0  0  0  1  0  0
    2.3155  -24.3039   48.9620 C   0  0  0  1  0  0
    2.9623  -23.9814   50.1612 C   0  0  0  1  0  0
    2.2646  -24.0706   51.3691 C   0  0  0  1  0  0
    0.9232  -24.4744   51.3744 C   0  0  0  1  0  0
    0.2385  -24.8031   50.1764 C   0  0  0  1  0  0
   -1.2345  -25.2306   50.2313 C   0  0  0  1  0  0
   -2.0503  -24.6220   49.0762 C   0  0  0  1  0  0
   -2.8546  -25.3213   48.5002 O   0  0  0  1  0  0
   -1.8749  -23.2968   48.6956 N   0  0  0  1  0  0
   -2.5058  -22.6672   47.6311 C   0  0  0  1  0  0
   -1.8710  -21.5873   46.9765 C   0  0  0  1  0  0
   -2.5087  -20.9520   45.8934 C   0  0  0  1  0  0
   -3.7345  -21.3538   45.4545 N   0  0  0  1  0  0
   -4.3700  -22.3864   46.0784 C   0  0  0  1  0  0
   -3.7872  -23.0542   47.1711 C   0  0  0  1  0  0
   -1.3304  -26.8038   50.2530 C   0  0  0  1  0  0
   -2.2135  -27.4391   51.3563 C   0  0  0  1  0  0
   -3.4986  -26.7115   51.5840 N   0  0  0  1  0  0
   -4.7020  -27.3720   51.8330 C   0  0  0  1  0  0
   -5.9162  -26.6495   51.8932 C   0  0  0  1  0  0
   -7.1230  -27.2932   52.2111 C   0  0  0  1  0  0
   -7.1446  -28.6785   52.4653 C   0  0  0  1  0  0
   -8.4280  -29.3817   52.8684 C   0  0  0  1  0  0
   -8.5413  -29.6274   54.3825 C   0  0  0  1  0  0
   -7.6714  -29.2010   55.1100 O   0  0  0  1  0  0
   -9.5814  -30.3028   54.8904 O   0  0  0  1  0  0
   -8.9742  -30.4328   51.9124 C   0  0  0  1  0  0
   -9.7012  -29.1197   52.0759 C   0  0  0  1  0  0
   -5.9526  -29.4165   52.3561 C   0  0  0  1  0  0
   -4.7430  -28.7713   52.0470 C   0  0  0  1  0  0
   -3.4335  -25.2219   51.5776 C   0  0  0  1  0  0
   -1.9822  -24.7164   51.5014 C   0  0  0  1  0  0
    2.1482  -25.7329   46.6031 H   0  0
    0.6428  -26.4056   45.9471 H   0  0
    1.2884  -27.0197   47.4956 H   0  0
   -0.6283  -25.4611   47.7898 H   0  0
   -0.3368  -24.0808   45.8109 H   0  0
    1.1685  -23.4081   46.4669 H   0  0
   -0.3884  -23.0403   47.2622 H   0  0
    2.8645  -24.2334   48.0230 H   0  0
    4.0045  -23.6624   50.1529 H   0  0
    2.7641  -23.8261   52.3066 H   0  0
    0.3917  -24.5377   52.3239 H   0  0
   -1.1930  -22.7096   49.2745 H   0  0
   -0.8903  -21.2470   47.3091 H   0  0
   -2.0106  -20.1203   45.3951 H   0  0
   -5.3510  -22.7014   45.7228 H   0  0
   -4.3212  -23.8677   47.6622 H   0  0
   -0.3229  -27.2092   50.3465 H   0  0
   -1.7004  -27.1389   49.2840 H   0  0
   -1.6523  -27.4615   52.2905 H   0  0
   -2.4372  -28.4696   51.0804 H   0  0
   -5.9153  -25.5786   51.6901 H   0  0
   -8.0476  -26.7181   52.2614 H   0  0
   -9.5710  -31.2186   54.3768 H   0  0
   -9.4748  -31.2393   52.4483 H   0  0
   -8.4031  -30.4638   50.9845 H   0  0
   -9.5182  -28.4511   51.2348 H   0  0
  -10.5887  -29.2260   52.6997 H   0  0
   -5.9669  -30.4952   52.5121 H   0  0
   -3.8255  -29.3548   51.9711 H   0  0
   -3.8979  -24.8389   52.4863 H   0  0
   -3.9893  -24.8435   50.7197 H   0  0
   -1.9864  -23.6264   51.4961 H   0  0
   -1.4442  -25.0478   52.3895 H   0  0
  1  2  1  0
  2  3  1  0
  2  4  1  0
  4  5  2  0
  4  9  1  0
  5  6  1  0
  6  7  2  0
  7  8  1  0
  8  9  2  0
  9 10  1  0
 10 11  1  0
 10 20  1  0
 10 36  1  0
 11 12  2  0
 11 13  1  0
 13 14  1  0
 14 15  2  0
 14 19  1  0
 15 16  1  0
 16 17  2  0
 17 18  1  0
 18 19  2  0
 20 21  1  0
 21 22  1  0
 22 23  1  0
 22 35  1  0
 23 24  2  0
 23 34  1  0
 24 25  1  0
 25 26  2  0
 26 27  1  0
 26 33  1  0
 27 28  1  0
 27 31  1  0
 27 32  1  0
 28 29  2  0
 28 30  1  0
 31 32  1  0
 33 34  2  0
 35 36  1  0
  1 37  1  0
  1 38  1  0
  1 39  1  0
  2 40  1  0
  3 41  1  0
  3 42  1  0
  3 43  1  0
  5 44  1  0
  6 45  1  0
  7 46  1  0
  8 47  1  0
 13 48  1  0
 15 49  1  0
 16 50  1  0
 18 51  1  0
 19 52  1  0
 20 53  1  0
 20 54  1  0
 21 55  1  0
 21 56  1  0
 24 57  1  0
 25 58  1  0
 30 59  1  0
 31 60  1  0
 31 61  1  0
 32 62  1  0
 32 63  1  0
 33 64  1  0
 34 65  1  0
 35 66  1  0
 35 67  1  0
 36 68  1  0
 36 69  1  0
M  END
> <Name>
Molecule

> <AbsoluteEnergy>
66.6999

> <Clean Energy>
200.853

> <ConfNumber>
15

> <MOL_NUMBER>
4

> <RelativeEnergy>
5.17739

> <POSE_NUMBER>
53

> <LibDockScore>
122.374

> <HotSpots>
3.07,-24.52,50.38,A,43,6
-2.53,-21.12,45.98,A,16,16
-9.33,-29.92,51.19,A,52,32

$$$$
Molecule
  SciTegic05072616053D

 69 73  0  0  0  0            999 V2000
   -1.5294  -22.8167   47.5295 C   0  0  0  1  0  0
   -0.9330  -24.1650   47.9819 C   0  0  0  1  0  0
   -0.6562  -25.0794   46.7738 C   0  0  0  1  0  0
    0.2985  -23.9802   48.8443 C   0  0  0  1  0  0
    1.3829  -23.2914   48.2500 C   0  0  0  1  0  0
    2.5654  -23.0519   48.9558 C   0  0  0  1  0  0
    2.6858  -23.4969   50.2738 C   0  0  0  1  0  0
    1.6261  -24.1841   50.8832 C   0  0  0  1  0  0
    0.4092  -24.4518   50.1970 C   0  0  0  1  0  0
   -0.7351  -25.2126   50.9049 C   0  0  0  1  0  0
   -1.9611  -24.2753   50.9986 C   0  0  0  1  0  0
   -1.7793  -23.0908   51.1961 O   0  0  0  1  0  0
   -3.2535  -24.7549   50.8545 N   0  0  0  1  0  0
   -4.4111  -24.0141   50.6624 C   0  0  0  1  0  0
   -4.4171  -22.6289   50.3725 C   0  0  0  1  0  0
   -5.6437  -21.9584   50.1982 C   0  0  0  1  0  0
   -6.8338  -22.6172   50.2904 N   0  0  0  1  0  0
   -6.8481  -23.9551   50.5577 C   0  0  0  1  0  0
   -5.6554  -24.6766   50.7475 C   0  0  0  1  0  0
   -0.3730  -25.6614   52.3517 C   0  0  0  1  0  0
   -1.4303  -26.5074   53.0926 C   0  0  0  1  0  0
   -2.0396  -27.6262   52.3003 N   0  0  0  1  0  0
   -2.8649  -28.5847   52.9252 C   0  0  0  1  0  0
   -2.7920  -28.8393   54.3188 C   0  0  0  1  0  0
   -3.6431  -29.7732   54.9396 C   0  0  0  1  0  0
   -4.5979  -30.4866   54.1914 C   0  0  0  1  0  0
   -5.5487  -31.4686   54.8710 C   0  0  0  1  0  0
   -4.9524  -32.8125   55.3424 C   0  0  0  1  0  0
   -5.4631  -33.3850   56.2855 O   0  0  0  1  0  0
   -3.8872  -33.3528   54.7422 O   0  0  0  1  0  0
   -6.6732  -30.8853   55.7181 C   0  0  0  1  0  0
   -6.9887  -31.4839   54.3693 C   0  0  0  1  0  0
   -4.6687  -30.2627   52.8051 C   0  0  0  1  0  0
   -3.8179  -29.3290   52.1833 C   0  0  0  1  0  0
   -1.8117  -27.6785   50.8137 C   0  0  0  1  0  0
   -0.9213  -26.5800   50.1708 C   0  0  0  1  0  0
   -2.4602  -23.0053   46.9946 H   0  0
   -0.8246  -22.3281   46.8568 H   0  0
   -1.7199  -22.1806   48.3939 H   0  0
   -1.6772  -24.6594   48.6062 H   0  0
    0.0435  -24.5775   46.1055 H   0  0
   -1.5922  -25.2547   46.2434 H   0  0
   -0.2354  -26.0276   47.1082 H   0  0
    1.2941  -22.9408   47.2217 H   0  0
    3.3894  -22.5204   48.4797 H   0  0
    3.6046  -23.3099   50.8297 H   0  0
    1.7382  -24.5231   51.9131 H   0  0
   -3.3722  -25.8175   50.8961 H   0  0
   -3.4774  -22.0836   50.2845 H   0  0
   -5.6413  -20.8895   49.9849 H   0  0
   -7.8034  -24.4756   50.6256 H   0  0
   -5.6916  -25.7451   50.9599 H   0  0
   -0.1650  -24.7728   52.9477 H   0  0
    0.5567  -26.2291   52.3143 H   0  0
   -2.2302  -25.8482   53.4297 H   0  0
   -0.9733  -26.9280   53.9884 H   0  0
   -2.0614  -28.3003   54.9219 H   0  0
   -3.5615  -29.9458   56.0128 H   0  0
   -3.1594  -32.5977   54.7929 H   0  0
   -6.6743  -29.7958   55.6853 H   0  0
   -6.9494  -31.5565   56.5313 H   0  0
   -7.4335  -32.4746   54.4625 H   0  0
   -7.1567  -30.7140   53.6162 H   0  0
   -5.3900  -30.8179   52.2054 H   0  0
   -3.8932  -29.1744   51.1069 H   0  0
   -1.3806  -28.6500   50.5719 H   0  0
   -2.7838  -27.6591   50.3210 H   0  0
   -1.3114  -26.3750   49.1739 H   0  0
    0.0667  -27.0081   50.0015 H   0  0
  1  2  1  0
  2  3  1  0
  2  4  1  0
  4  5  2  0
  4  9  1  0
  5  6  1  0
  6  7  2  0
  7  8  1  0
  8  9  2  0
  9 10  1  0
 10 11  1  0
 10 20  1  0
 10 36  1  0
 11 12  2  0
 11 13  1  0
 13 14  1  0
 14 15  2  0
 14 19  1  0
 15 16  1  0
 16 17  2  0
 17 18  1  0
 18 19  2  0
 20 21  1  0
 21 22  1  0
 22 23  1  0
 22 35  1  0
 23 24  2  0
 23 34  1  0
 24 25  1  0
 25 26  2  0
 26 27  1  0
 26 33  1  0
 27 28  1  0
 27 31  1  0
 27 32  1  0
 28 29  2  0
 28 30  1  0
 31 32  1  0
 33 34  2  0
 35 36  1  0
  1 37  1  0
  1 38  1  0
  1 39  1  0
  2 40  1  0
  3 41  1  0
  3 42  1  0
  3 43  1  0
  5 44  1  0
  6 45  1  0
  7 46  1  0
  8 47  1  0
 13 48  1  0
 15 49  1  0
 16 50  1  0
 18 51  1  0
 19 52  1  0
 20 53  1  0
 20 54  1  0
 21 55  1  0
 21 56  1  0
 24 57  1  0
 25 58  1  0
 30 59  1  0
 31 60  1  0
 31 61  1  0
 32 62  1  0
 32 63  1  0
 33 64  1  0
 34 65  1  0
 35 66  1  0
 35 67  1  0
 36 68  1  0
 36 69  1  0
M  END
> <Name>
Molecule

> <AbsoluteEnergy>
70.0492

> <Clean Energy>
200.853

> <ConfNumber>
33

> <MOL_NUMBER>
4

> <RelativeEnergy>
8.52667

> <POSE_NUMBER>
54

> <LibDockScore>
122.3469

> <HotSpots>
0.27,-24.92,46.38,A,19,3
1.67,-24.32,50.98,A,50,8
-6.53,-23.32,50.38,A,45,18

$$$$
Molecule
  SciTegic05072616053D

 69 73  0  0  0  0            999 V2000
   -4.0918  -24.6508   47.1615 C   0  0  0  1  0  0
   -3.4201  -24.2707   48.4964 C   0  0  0  1  0  0
   -2.7775  -22.8726   48.4248 C   0  0  0  1  0  0
   -4.3615  -24.4016   49.6740 C   0  0  0  1  0  0
   -5.5412  -23.6253   49.6259 C   0  0  0  1  0  0
   -6.5169  -23.7250   50.6237 C   0  0  0  1  0  0
   -6.3255  -24.6043   51.6943 C   0  0  0  1  0  0
   -5.1406  -25.3461   51.7859 C   0  0  0  1  0  0
   -4.1184  -25.2527   50.8027 C   0  0  0  1  0  0
   -2.8095  -26.0466   50.9699 C   0  0  0  1  0  0
   -1.6185  -25.1240   50.6397 C   0  0  0  1  0  0
   -1.5250  -24.1119   51.2988 O   0  0  0  1  0  0
   -0.6887  -25.3984   49.6365 N   0  0  0  1  0  0
    0.5845  -24.8392   49.5032 C   0  0  0  1  0  0
    1.3215  -25.0464   48.3115 C   0  0  0  1  0  0
    2.6028  -24.4743   48.1607 C   0  0  0  1  0  0
    3.1603  -23.7132   49.1423 N   0  0  0  1  0  0
    2.4761  -23.5065   50.3022 C   0  0  0  1  0  0
    1.1996  -24.0595   50.5129 C   0  0  0  1  0  0
   -2.5075  -26.4873   52.4473 C   0  0  0  1  0  0
   -3.0732  -27.8554   52.9156 C   0  0  0  1  0  0
   -4.2659  -28.3187   52.1422 N   0  0  0  1  0  0
   -5.4357  -28.7667   52.7790 C   0  0  0  1  0  0
   -6.7050  -28.6326   52.1635 C   0  0  0  1  0  0
   -7.8840  -28.9763   52.8486 C   0  0  0  1  0  0
   -7.8217  -29.4612   54.1652 C   0  0  0  1  0  0
   -9.0922  -29.6963   54.9569 C   0  0  0  1  0  0
   -9.3848  -28.5586   55.9410 C   0  0  0  1  0  0
   -9.3337  -27.4112   55.5434 O   0  0  0  1  0  0
   -9.6848  -28.8574   57.2093 O   0  0  0  1  0  0
   -9.4629  -31.1197   55.3518 C   0  0  0  1  0  0
  -10.2692  -30.4005   54.2966 C   0  0  0  1  0  0
   -6.5716  -29.6957   54.7575 C   0  0  0  1  0  0
   -5.3920  -29.3555   54.0706 C   0  0  0  1  0  0
   -4.1297  -28.2473   50.6493 C   0  0  0  1  0  0
   -2.9208  -27.3905   50.1882 C   0  0  0  1  0  0
   -3.3373  -24.6361   46.3750 H   0  0
   -4.8570  -23.9090   46.9327 H   0  0
   -4.5404  -25.6418   47.2310 H   0  0
   -2.6184  -24.9899   48.6642 H   0  0
   -3.5528  -22.1445   48.1863 H   0  0
   -2.0330  -22.8715   47.6286 H   0  0
   -2.3082  -22.6213   49.3760 H   0  0
   -5.6940  -22.9357   48.7957 H   0  0
   -7.4219  -23.1202   50.5669 H   0  0
   -7.0972  -24.7123   52.4564 H   0  0
   -4.9985  -26.0140   52.6355 H   0  0
   -0.9807  -26.1102   48.8929 H   0  0
    0.8978  -25.6495   47.5085 H   0  0
    3.1580  -24.6455   47.2385 H   0  0
    2.9284  -22.8983   51.0855 H   0  0
    0.6822  -23.8872   51.4567 H   0  0
   -1.4265  -26.5004   52.5862 H   0  0
   -2.8836  -25.7157   53.1191 H   0  0
   -2.2888  -28.6078   52.8329 H   0  0
   -3.3458  -27.7831   53.9685 H   0  0
   -6.7686  -28.2569   51.1423 H   0  0
   -8.8500  -28.8659   52.3559 H   0  0
   -8.8748  -29.4302   57.5534 H   0  0
   -9.9848  -31.1462   56.3083 H   0  0
   -8.7808  -31.8467   54.9110 H   0  0
  -10.0176  -30.7453   53.2936 H   0  0
  -11.2205  -30.0434   54.6910 H   0  0
   -6.5144  -30.1417   55.7504 H   0  0
   -4.4264  -29.5474   54.5385 H   0  0
   -4.0179  -29.2577   50.2559 H   0  0
   -5.0429  -27.8250   50.2299 H   0  0
   -3.0229  -27.1760   49.1244 H   0  0
   -2.0047  -27.9635   50.3314 H   0  0
  1  2  1  0
  2  3  1  0
  2  4  1  0
  4  5  2  0
  4  9  1  0
  5  6  1  0
  6  7  2  0
  7  8  1  0
  8  9  2  0
  9 10  1  0
 10 11  1  0
 10 20  1  0
 10 36  1  0
 11 12  2  0
 11 13  1  0
 13 14  1  0
 14 15  2  0
 14 19  1  0
 15 16  1  0
 16 17  2  0
 17 18  1  0
 18 19  2  0
 20 21  1  0
 21 22  1  0
 22 23  1  0
 22 35  1  0
 23 24  2  0
 23 34  1  0
 24 25  1  0
 25 26  2  0
 26 27  1  0
 26 33  1  0
 27 28  1  0
 27 31  1  0
 27 32  1  0
 28 29  2  0
 28 30  1  0
 31 32  1  0
 33 34  2  0
 35 36  1  0
  1 37  1  0
  1 38  1  0
  1 39  1  0
  2 40  1  0
  3 41  1  0
  3 42  1  0
  3 43  1  0
  5 44  1  0
  6 45  1  0
  7 46  1  0
  8 47  1  0
 13 48  1  0
 15 49  1  0
 16 50  1  0
 18 51  1  0
 19 52  1  0
 20 53  1  0
 20 54  1  0
 21 55  1  0
 21 56  1  0
 24 57  1  0
 25 58  1  0
 30 59  1  0
 31 60  1  0
 31 61  1  0
 32 62  1  0
 32 63  1  0
 33 64  1  0
 34 65  1  0
 35 66  1  0
 35 67  1  0
 36 68  1  0
 36 69  1  0
M  END
> <Name>
Molecule

> <AbsoluteEnergy>
71.978

> <Clean Energy>
200.853

> <ConfNumber>
47

> <MOL_NUMBER>
4

> <RelativeEnergy>
10.4555

> <POSE_NUMBER>
55

> <LibDockScore>
122.2124

> <HotSpots>
-2.53,-22.32,48.19,A,29,3
2.67,-23.92,48.98,A,32,18
-7.93,-28.32,52.38,A,59,25

$$$$
Molecule
  SciTegic05072616053D

 69 73  0  0  0  0            999 V2000
   -0.2787  -23.3278   48.2654 C   0  0  0  1  0  0
   -0.0063  -24.7375   48.8207 C   0  0  0  1  0  0
    0.7106  -25.6270   47.7880 C   0  0  0  1  0  0
    0.7274  -24.6900   50.1418 C   0  0  0  1  0  0
    2.0636  -24.2312   50.1162 C   0  0  0  1  0  0
    2.8287  -24.1584   51.2855 C   0  0  0  1  0  0
    2.2673  -24.5419   52.5058 C   0  0  0  1  0  0
    0.9426  -24.9946   52.5553 C   0  0  0  1  0  0
    0.1390  -25.0763   51.3895 C   0  0  0  1  0  0
   -1.3110  -25.5670   51.4939 C   0  0  0  1  0  0
   -2.2458  -24.5266   50.8488 C   0  0  0  1  0  0
   -2.2598  -23.4048   51.3099 O   0  0  0  1  0  0
   -3.0528  -24.8363   49.7648 N   0  0  0  1  0  0
   -3.9644  -23.9607   49.2074 C   0  0  0  1  0  0
   -4.2312  -23.9917   47.8234 C   0  0  0  1  0  0
   -5.1641  -23.0886   47.2771 C   0  0  0  1  0  0
   -5.8251  -22.1899   48.0614 N   0  0  0  1  0  0
   -5.5806  -22.1510   49.4018 C   0  0  0  1  0  0
   -4.6549  -23.0240   50.0030 C   0  0  0  1  0  0
   -1.4026  -27.0350   50.9287 C   0  0  0  1  0  0
   -2.3396  -28.0126   51.6850 C   0  0  0  1  0  0
   -3.5324  -27.3446   52.2781 N   0  0  0  1  0  0
   -4.8109  -27.8639   52.1414 C   0  0  0  1  0  0
   -5.0007  -29.2268   51.8216 C   0  0  0  1  0  0
   -6.2952  -29.7686   51.7551 C   0  0  0  1  0  0
   -7.4167  -28.9565   52.0037 C   0  0  0  1  0  0
   -8.8070  -29.5550   52.0200 C   0  0  0  1  0  0
   -9.4394  -29.5288   53.4127 C   0  0  0  1  0  0
  -10.0274  -30.5057   53.8217 O   0  0  0  1  0  0
   -9.3250  -28.4196   54.1490 O   0  0  0  1  0  0
   -9.1236  -30.7141   51.0856 C   0  0  0  1  0  0
   -9.7149  -29.3506   50.8168 C   0  0  0  1  0  0
   -7.2355  -27.5844   52.2625 C   0  0  0  1  0  0
   -5.9433  -27.0425   52.3326 C   0  0  0  1  0  0
   -3.2975  -26.0990   53.0597 C   0  0  0  1  0  0
   -1.8328  -25.6357   52.9635 C   0  0  0  1  0  0
   -0.8966  -23.4207   47.3723 H   0  0
    0.6734  -22.8736   47.9909 H   0  0
   -0.7859  -22.7154   49.0109 H   0  0
   -0.9737  -25.1995   49.0176 H   0  0
    1.6540  -25.1527   47.5177 H   0  0
    0.0841  -25.6997   46.8990 H   0  0
    0.8937  -26.6191   48.2006 H   0  0
    2.5068  -23.9282   49.1676 H   0  0
    3.8586  -23.8039   51.2443 H   0  0
    2.8598  -24.4889   53.4191 H   0  0
    0.5185  -25.2917   53.5144 H   0  0
   -2.9642  -25.8118   49.3342 H   0  0
   -3.7197  -24.7087   47.1812 H   0  0
   -5.3617  -23.1085   46.2053 H   0  0
   -6.1130  -21.4289   50.0208 H   0  0
   -4.4730  -22.9762   51.0767 H   0  0
   -0.4003  -27.4631   50.9142 H   0  0
   -1.7265  -26.9846   49.8892 H   0  0
   -1.7768  -28.4996   52.4813 H   0  0
   -2.6761  -28.7861   50.9947 H   0  0
   -4.1371  -29.8622   51.6252 H   0  0
   -6.4311  -30.8220   51.5100 H   0  0
   -9.7297  -27.6527   53.5569 H   0  0
   -9.8571  -31.3915   51.5229 H   0  0
   -8.2885  -30.9291   50.4188 H   0  0
   -9.1957  -28.8399   50.0058 H   0  0
  -10.7633  -29.3017   51.1111 H   0  0
   -8.1027  -26.9405   52.4090 H   0  0
   -5.8126  -25.9797   52.5361 H   0  0
   -3.5473  -26.2794   54.1053 H   0  0
   -3.9475  -25.3107   52.6800 H   0  0
   -1.7435  -24.6495   53.4191 H   0  0
   -1.2062  -26.3241   53.5306 H   0  0
  1  2  1  0
  2  3  1  0
  2  4  1  0
  4  5  2  0
  4  9  1  0
  5  6  1  0
  6  7  2  0
  7  8  1  0
  8  9  2  0
  9 10  1  0
 10 11  1  0
 10 20  1  0
 10 36  1  0
 11 12  2  0
 11 13  1  0
 13 14  1  0
 14 15  2  0
 14 19  1  0
 15 16  1  0
 16 17  2  0
 17 18  1  0
 18 19  2  0
 20 21  1  0
 21 22  1  0
 22 23  1  0
 22 35  1  0
 23 24  2  0
 23 34  1  0
 24 25  1  0
 25 26  2  0
 26 27  1  0
 26 33  1  0
 27 28  1  0
 27 31  1  0
 27 32  1  0
 28 29  2  0
 28 30  1  0
 31 32  1  0
 33 34  2  0
 35 36  1  0
  1 37  1  0
  1 38  1  0
  1 39  1  0
  2 40  1  0
  3 41  1  0
  3 42  1  0
  3 43  1  0
  5 44  1  0
  6 45  1  0
  7 46  1  0
  8 47  1  0
 13 48  1  0
 15 49  1  0
 16 50  1  0
 18 51  1  0
 19 52  1  0
 20 53  1  0
 20 54  1  0
 21 55  1  0
 21 56  1  0
 24 57  1  0
 25 58  1  0
 30 59  1  0
 31 60  1  0
 31 61  1  0
 32 62  1  0
 32 63  1  0
 33 64  1  0
 34 65  1  0
 35 66  1  0
 35 67  1  0
 36 68  1  0
 36 69  1  0
M  END
> <Name>
Molecule

> <AbsoluteEnergy>
70.8074

> <Clean Energy>
200.853

> <ConfNumber>
41

> <MOL_NUMBER>
4

> <RelativeEnergy>
9.28485

> <POSE_NUMBER>
56

> <LibDockScore>
122.0296

> <HotSpots>
0.87,-24.32,52.78,A,63,8
-5.53,-22.92,48.98,A,33,18
-8.53,-31.32,51.19,A,51,31

$$$$
Molecule
  SciTegic05072616053D

 69 73  0  0  0  0            999 V2000
   -0.2951  -23.3104   48.2053 C   0  0  0  1  0  0
   -0.0258  -24.7183   48.7670 C   0  0  0  1  0  0
    0.6807  -25.6169   47.7351 C   0  0  0  1  0  0
    0.7160  -24.6667   50.0834 C   0  0  0  1  0  0
    2.0529  -24.2105   50.0477 C   0  0  0  1  0  0
    2.8253  -24.1344   51.2119 C   0  0  0  1  0  0
    2.2708  -24.5120   52.4373 C   0  0  0  1  0  0
    0.9456  -24.9620   52.4966 C   0  0  0  1  0  0
    0.1347  -25.0470   51.3362 C   0  0  0  1  0  0
   -1.3156  -25.5346   51.4515 C   0  0  0  1  0  0
   -2.2530  -24.4921   50.8137 C   0  0  0  1  0  0
   -2.2538  -23.3676   51.2687 O   0  0  0  1  0  0
   -3.0769  -24.8027   49.7427 N   0  0  0  1  0  0
   -3.9852  -23.9220   49.1882 C   0  0  0  1  0  0
   -4.2570  -23.9520   47.8051 C   0  0  0  1  0  0
   -5.1864  -23.0436   47.2616 C   0  0  0  1  0  0
   -5.8394  -22.1408   48.0478 N   0  0  0  1  0  0
   -5.5901  -22.1027   49.3873 C   0  0  0  1  0  0
   -4.6674  -22.9809   49.9857 C   0  0  0  1  0  0
   -1.4146  -27.0022   50.8868 C   0  0  0  1  0  0
   -2.3479  -27.9780   51.6499 C   0  0  0  1  0  0
   -3.5348  -27.3075   52.2522 N   0  0  0  1  0  0
   -4.8154  -27.8241   52.1251 C   0  0  0  1  0  0
   -5.0110  -29.1940   51.8412 C   0  0  0  1  0  0
   -6.3078  -29.7311   51.7848 C   0  0  0  1  0  0
   -7.4261  -28.9072   52.0078 C   0  0  0  1  0  0
   -8.8194  -29.4983   52.0354 C   0  0  0  1  0  0
   -9.4499  -29.4466   53.4282 C   0  0  0  1  0  0
  -10.0700  -30.4019   53.8406 O   0  0  0  1  0  0
   -9.2980  -28.3396   54.1610 O   0  0  0  1  0  0
   -9.1431  -30.6705   51.1200 C   0  0  0  1  0  0
   -9.7278  -29.3085   50.8301 C   0  0  0  1  0  0
   -7.2390  -27.5296   52.2305 C   0  0  0  1  0  0
   -5.9443  -26.9924   52.2905 C   0  0  0  1  0  0
   -3.2913  -26.0626   53.0322 C   0  0  0  1  0  0
   -1.8264  -25.6024   52.9250 C   0  0  0  1  0  0
   -0.9188  -23.4055   47.3164 H   0  0
    0.6574  -22.8622   47.9225 H   0  0
   -0.7949  -22.6914   48.9504 H   0  0
   -0.9941  -25.1747   48.9723 H   0  0
    1.6246  -25.1485   47.4564 H   0  0
    0.0484  -25.6918   46.8504 H   0  0
    0.8618  -26.6075   48.1522 H   0  0
    2.4908  -23.9122   49.0951 H   0  0
    3.8556  -23.7819   51.1629 H   0  0
    2.8690  -24.4565   53.3468 H   0  0
    0.5268  -25.2544   53.4595 H   0  0
   -3.0049  -25.7832   49.3204 H   0  0
   -3.7520  -24.6723   47.1615 H   0  0
   -5.3877  -23.0627   46.1905 H   0  0
   -6.1162  -21.3772   50.0078 H   0  0
   -4.4815  -22.9337   51.0587 H   0  0
   -0.4133  -27.4324   50.8647 H   0  0
   -1.7462  -26.9509   49.8497 H   0  0
   -1.7801  -28.4664   52.4418 H   0  0
   -2.6913  -28.7506   50.9620 H   0  0
   -4.1499  -29.8386   51.6647 H   0  0
   -6.4481  -30.7900   51.5675 H   0  0
   -9.6770  -27.5614   53.5667 H   0  0
   -9.8795  -31.3371   51.5689 H   0  0
   -8.3100  -30.9004   50.4558 H   0  0
   -9.2070  -28.8135   50.0105 H   0  0
  -10.7755  -29.2495   51.1248 H   0  0
   -8.1035  -26.8778   52.3568 H   0  0
   -5.8090  -25.9252   52.4661 H   0  0
   -3.5335  -26.2426   54.0796 H   0  0
   -3.9425  -25.2728   52.6576 H   0  0
   -1.7316  -24.6165   53.3801 H   0  0
   -1.1970  -26.2923   53.4872 H   0  0
  1  2  1  0
  2  3  1  0
  2  4  1  0
  4  5  2  0
  4  9  1  0
  5  6  1  0
  6  7  2  0
  7  8  1  0
  8  9  2  0
  9 10  1  0
 10 11  1  0
 10 20  1  0
 10 36  1  0
 11 12  2  0
 11 13  1  0
 13 14  1  0
 14 15  2  0
 14 19  1  0
 15 16  1  0
 16 17  2  0
 17 18  1  0
 18 19  2  0
 20 21  1  0
 21 22  1  0
 22 23  1  0
 22 35  1  0
 23 24  2  0
 23 34  1  0
 24 25  1  0
 25 26  2  0
 26 27  1  0
 26 33  1  0
 27 28  1  0
 27 31  1  0
 27 32  1  0
 28 29  2  0
 28 30  1  0
 31 32  1  0
 33 34  2  0
 35 36  1  0
  1 37  1  0
  1 38  1  0
  1 39  1  0
  2 40  1  0
  3 41  1  0
  3 42  1  0
  3 43  1  0
  5 44  1  0
  6 45  1  0
  7 46  1  0
  8 47  1  0
 13 48  1  0
 15 49  1  0
 16 50  1  0
 18 51  1  0
 19 52  1  0
 20 53  1  0
 20 54  1  0
 21 55  1  0
 21 56  1  0
 24 57  1  0
 25 58  1  0
 30 59  1  0
 31 60  1  0
 31 61  1  0
 32 62  1  0
 32 63  1  0
 33 64  1  0
 34 65  1  0
 35 66  1  0
 35 67  1  0
 36 68  1  0
 36 69  1  0
M  END
> <Name>
Molecule

> <AbsoluteEnergy>
70.8074

> <Clean Energy>
200.853

> <ConfNumber>
41

> <MOL_NUMBER>
4

> <RelativeEnergy>
9.28485

> <POSE_NUMBER>
57

> <LibDockScore>
121.8071

> <HotSpots>
2.67,-23.92,48.98,A,32,6
-4.93,-23.52,47.59,A,26,15
-9.33,-29.92,51.19,A,52,31

$$$$
Molecule
  SciTegic05072616053D

 69 73  0  0  0  0            999 V2000
   -0.4307  -23.3584   47.7709 C   0  0  0  1  0  0
   -0.1411  -24.7466   48.3712 C   0  0  0  1  0  0
    0.4509  -25.7058   47.3224 C   0  0  0  1  0  0
    0.7257  -24.6581   49.6081 C   0  0  0  1  0  0
    2.0685  -24.2634   49.4177 C   0  0  0  1  0  0
    2.9482  -24.1407   50.4988 C   0  0  0  1  0  0
    2.4964  -24.4098   51.7932 C   0  0  0  1  0  0
    1.1689  -24.8051   52.0042 C   0  0  0  1  0  0
    0.2537  -24.9474   50.9292 C   0  0  0  1  0  0
   -1.1928  -25.3961   51.1937 C   0  0  0  1  0  0
   -2.1627  -24.3255   50.6491 C   0  0  0  1  0  0
   -1.7257  -23.2288   50.3784 O   0  0  0  1  0  0
   -3.5106  -24.6051   50.4667 N   0  0  0  1  0  0
   -4.5583  -23.7068   50.2871 C   0  0  0  1  0  0
   -5.8843  -24.1669   50.4539 C   0  0  0  1  0  0
   -6.9662  -23.2821   50.2854 C   0  0  0  1  0  0
   -6.7686  -21.9741   49.9600 N   0  0  0  1  0  0
   -5.5011  -21.5072   49.7864 C   0  0  0  1  0  0
   -4.3796  -22.3470   49.9372 C   0  0  0  1  0  0
   -1.3928  -26.8350   50.5792 C   0  0  0  1  0  0
   -2.0409  -27.8936   51.5003 C   0  0  0  1  0  0
   -3.1875  -27.3502   52.2908 N   0  0  0  1  0  0
   -4.4229  -27.9965   52.3628 C   0  0  0  1  0  0
   -4.5350  -29.3857   52.1169 C   0  0  0  1  0  0
   -5.7810  -30.0310   52.1739 C   0  0  0  1  0  0
   -6.9420  -29.3030   52.4850 C   0  0  0  1  0  0
   -8.2830  -29.9936   52.5442 C   0  0  0  1  0  0
   -8.8601  -30.0437   53.9513 C   0  0  0  1  0  0
   -8.1392  -30.3516   54.8723 O   0  0  0  1  0  0
  -10.1449  -29.7487   54.1452 O   0  0  0  1  0  0
   -8.5648  -31.1588   51.6079 C   0  0  0  1  0  0
   -9.2494  -29.8339   51.3815 C   0  0  0  1  0  0
   -6.8449  -27.9248   52.7447 C   0  0  0  1  0  0
   -5.6001  -27.2804   52.6852 C   0  0  0  1  0  0
   -2.9312  -26.0694   53.0145 C   0  0  0  1  0  0
   -1.5292  -25.5055   52.7171 C   0  0  0  1  0  0
   -1.1339  -23.4767   46.9465 H   0  0
    0.5014  -22.9462   47.3844 H   0  0
   -0.8486  -22.6953   48.5283 H   0  0
   -1.0969  -25.1653   48.6861 H   0  0
    1.3755  -25.2736   46.9397 H   0  0
   -0.2598  -25.8041   46.5018 H   0  0
    0.6484  -26.6814   47.7666 H   0  0
    2.4259  -24.0505   48.4102 H   0  0
    3.9815  -23.8365   50.3319 H   0  0
    3.1768  -24.3122   52.6391 H   0  0
    0.8305  -25.0085   53.0202 H   0  0
   -3.7772  -25.6414   50.4639 H   0  0
   -6.0696  -25.2092   50.7136 H   0  0
   -7.9832  -23.6513   50.4181 H   0  0
   -5.3507  -20.4598   49.5248 H   0  0
   -3.3760  -21.9500   49.7846 H   0  0
   -0.4225  -27.2108   50.2547 H   0  0
   -2.0011  -26.7446   49.6793 H   0  0
   -1.2873  -28.2764   52.1884 H   0  0
   -2.3941  -28.7259   50.8915 H   0  0
   -3.6414  -29.9631   51.8799 H   0  0
   -5.8478  -31.1008   51.9760 H   0  0
  -10.6699  -30.4076   53.5184 H   0  0
   -9.2361  -31.8858   52.0649 H   0  0
   -7.7457  -31.3140   50.9057 H   0  0
   -8.7965  -29.2825   50.5575 H   0  0
  -10.2860  -29.8537   51.7179 H   0  0
   -7.7401  -27.3547   52.9932 H   0  0
   -5.5388  -26.2117   52.8905 H   0  0
   -3.0264  -26.2398   54.0869 H   0  0
   -3.6807  -25.3360   52.7170 H   0  0
   -1.4469  -24.5166   53.1681 H   0  0
   -0.7864  -26.1434   53.1962 H   0  0
  1  2  1  0
  2  3  1  0
  2  4  1  0
  4  5  2  0
  4  9  1  0
  5  6  1  0
  6  7  2  0
  7  8  1  0
  8  9  2  0
  9 10  1  0
 10 11  1  0
 10 20  1  0
 10 36  1  0
 11 12  2  0
 11 13  1  0
 13 14  1  0
 14 15  2  0
 14 19  1  0
 15 16  1  0
 16 17  2  0
 17 18  1  0
 18 19  2  0
 20 21  1  0
 21 22  1  0
 22 23  1  0
 22 35  1  0
 23 24  2  0
 23 34  1  0
 24 25  1  0
 25 26  2  0
 26 27  1  0
 26 33  1  0
 27 28  1  0
 27 31  1  0
 27 32  1  0
 28 29  2  0
 28 30  1  0
 31 32  1  0
 33 34  2  0
 35 36  1  0
  1 37  1  0
  1 38  1  0
  1 39  1  0
  2 40  1  0
  3 41  1  0
  3 42  1  0
  3 43  1  0
  5 44  1  0
  6 45  1  0
  7 46  1  0
  8 47  1  0
 13 48  1  0
 15 49  1  0
 16 50  1  0
 18 51  1  0
 19 52  1  0
 20 53  1  0
 20 54  1  0
 21 55  1  0
 21 56  1  0
 24 57  1  0
 25 58  1  0
 30 59  1  0
 31 60  1  0
 31 61  1  0
 32 62  1  0
 32 63  1  0
 33 64  1  0
 34 65  1  0
 35 66  1  0
 35 67  1  0
 36 68  1  0
 36 69  1  0
M  END
> <Name>
Molecule

> <AbsoluteEnergy>
64.0062

> <Clean Energy>
200.853

> <ConfNumber>
6

> <MOL_NUMBER>
4

> <RelativeEnergy>
2.48363

> <POSE_NUMBER>
58

> <LibDockScore>
121.5814

> <HotSpots>
0.27,-24.92,46.38,A,19,3
1.67,-24.32,50.98,A,50,8
-6.53,-23.32,50.38,A,45,16

$$$$
Molecule
  SciTegic05072616053D

 69 73  0  0  0  0            999 V2000
    0.6520  -23.6197   53.1409 C   0  0  0  1  0  0
    0.9943  -24.9765   52.4991 C   0  0  0  1  0  0
    2.4732  -25.3433   52.7612 C   0  0  0  1  0  0
    0.5987  -25.0071   51.0381 C   0  0  0  1  0  0
    1.4798  -24.3428   50.1491 C   0  0  0  1  0  0
    1.2629  -24.3229   48.7678 C   0  0  0  1  0  0
    0.1443  -24.9624   48.2365 C   0  0  0  1  0  0
   -0.7561  -25.6042   49.0915 C   0  0  0  1  0  0
   -0.5806  -25.6375   50.4997 C   0  0  0  1  0  0
   -1.7239  -26.3515   51.2470 C   0  0  0  1  0  0
   -3.0577  -25.7568   50.7535 C   0  0  0  1  0  0
   -3.8763  -26.4862   50.2402 O   0  0  0  1  0  0
   -3.3045  -24.3983   50.9074 N   0  0  0  1  0  0
   -4.4875  -23.7088   50.6535 C   0  0  0  1  0  0
   -4.4390  -22.3052   50.4958 C   0  0  0  1  0  0
   -5.6214  -21.5793   50.2554 C   0  0  0  1  0  0
   -6.8304  -22.1995   50.1698 N   0  0  0  1  0  0
   -6.9055  -23.5503   50.3187 C   0  0  0  1  0  0
   -5.7575  -24.3285   50.5571 C   0  0  0  1  0  0
   -1.6455  -27.8895   50.9225 C   0  0  0  1  0  0
   -2.3610  -28.8351   51.9237 C   0  0  0  1  0  0
   -3.4814  -28.1420   52.6124 N   0  0  0  1  0  0
   -4.7967  -28.5780   52.4958 C   0  0  0  1  0  0
   -5.8701  -27.7087   52.7904 C   0  0  0  1  0  0
   -7.1974  -28.1219   52.6072 C   0  0  0  1  0  0
   -7.4801  -29.4185   52.1425 C   0  0  0  1  0  0
   -8.9174  -29.8311   51.9137 C   0  0  0  1  0  0
   -9.7208  -29.9636   53.2035 C   0  0  0  1  0  0
   -9.6597  -29.0562   54.0012 O   0  0  0  1  0  0
  -10.4672  -31.0487   53.4352 O   0  0  0  1  0  0
   -9.2883  -30.6716   50.6980 C   0  0  0  1  0  0
   -9.6359  -29.2039   50.7267 C   0  0  0  1  0  0
   -6.4218  -30.3103   51.8908 C   0  0  0  1  0  0
   -5.0896  -29.8910   52.0629 C   0  0  0  1  0  0
   -3.0905  -26.9181   53.3758 C   0  0  0  1  0  0
   -1.7923  -26.2891   52.8049 C   0  0  0  1  0  0
    1.2982  -22.8519   52.7154 H   0  0
    0.8270  -23.6802   54.2151 H   0  0
   -0.3919  -23.3702   52.9507 H   0  0
    0.4016  -25.7585   52.9737 H   0  0
    2.6410  -25.3970   53.8369 H   0  0
    3.1122  -24.5687   52.3372 H   0  0
    2.7055  -26.3047   52.3032 H   0  0
    2.3532  -23.8318   50.5543 H   0  0
    1.9648  -23.8101   48.1102 H   0  0
   -0.0274  -24.9620   47.1601 H   0  0
   -1.6267  -26.0983   48.6602 H   0  0
   -2.4854  -23.8098   51.2647 H   0  0
   -3.4842  -21.7834   50.5604 H   0  0
   -5.5676  -20.4973   50.1352 H   0  0
   -7.8768  -24.0404   50.2518 H   0  0
   -5.8457  -25.4093   50.6677 H   0  0
   -0.5963  -28.1791   50.8650 H   0  0
   -2.0659  -28.0559   49.9307 H   0  0
   -1.6436  -29.1817   52.6675 H   0  0
   -2.7512  -29.6991   51.3858 H   0  0
   -5.6645  -26.7057   53.1642 H   0  0
   -8.0144  -27.4344   52.8262 H   0  0
   -9.7942  -31.8498   53.3470 H   0  0
  -10.1600  -31.2958   50.8947 H   0  0
   -8.4201  -30.8678   50.0688 H   0  0
   -8.9542  -28.6166   50.1116 H   0  0
  -10.6931  -29.0444   50.9389 H   0  0
   -6.6340  -31.3276   51.5620 H   0  0
   -4.2750  -30.5863   51.8602 H   0  0
   -2.9310  -27.1821   54.4213 H   0  0
   -3.8975  -26.1876   53.3198 H   0  0
   -1.7342  -25.2480   53.1224 H   0  0
   -0.9321  -26.8148   53.2194 H   0  0
  1  2  1  0
  2  3  1  0
  2  4  1  0
  4  5  2  0
  4  9  1  0
  5  6  1  0
  6  7  2  0
  7  8  1  0
  8  9  2  0
  9 10  1  0
 10 11  1  0
 10 20  1  0
 10 36  1  0
 11 12  2  0
 11 13  1  0
 13 14  1  0
 14 15  2  0
 14 19  1  0
 15 16  1  0
 16 17  2  0
 17 18  1  0
 18 19  2  0
 20 21  1  0
 21 22  1  0
 22 23  1  0
 22 35  1  0
 23 24  2  0
 23 34  1  0
 24 25  1  0
 25 26  2  0
 26 27  1  0
 26 33  1  0
 27 28  1  0
 27 31  1  0
 27 32  1  0
 28 29  2  0
 28 30  1  0
 31 32  1  0
 33 34  2  0
 35 36  1  0
  1 37  1  0
  1 38  1  0
  1 39  1  0
  2 40  1  0
  3 41  1  0
  3 42  1  0
  3 43  1  0
  5 44  1  0
  6 45  1  0
  7 46  1  0
  8 47  1  0
 13 48  1  0
 15 49  1  0
 16 50  1  0
 18 51  1  0
 19 52  1  0
 20 53  1  0
 20 54  1  0
 21 55  1  0
 21 56  1  0
 24 57  1  0
 25 58  1  0
 30 59  1  0
 31 60  1  0
 31 61  1  0
 32 62  1  0
 32 63  1  0
 33 64  1  0
 34 65  1  0
 35 66  1  0
 35 67  1  0
 36 68  1  0
 36 69  1  0
M  END
> <Name>
Molecule

> <AbsoluteEnergy>
73.7254

> <Clean Energy>
200.853

> <ConfNumber>
56

> <MOL_NUMBER>
4

> <RelativeEnergy>
12.2029

> <POSE_NUMBER>
59

> <LibDockScore>
121.5033

> <HotSpots>
2.27,-24.92,52.19,A,58,3
-7.33,-24.12,50.38,A,44,18
-9.53,-30.12,52.78,A,62,32

$$$$
Molecule
  SciTegic05072616053D

 69 73  0  0  0  0            999 V2000
    0.5623  -23.7718   51.9929 C   0  0  0  1  0  0
    1.3544  -24.8183   51.1882 C   0  0  0  1  0  0
    2.8699  -24.5193   51.2527 C   0  0  0  1  0  0
    0.8100  -24.9556   49.7822 C   0  0  0  1  0  0
    1.6001  -24.3765   48.7583 C   0  0  0  1  0  0
    1.2421  -24.4601   47.4092 C   0  0  0  1  0  0
    0.0695  -25.1207   47.0469 C   0  0  0  1  0  0
   -0.7431  -25.6796   48.0373 C   0  0  0  1  0  0
   -0.4237  -25.6066   49.4184 C   0  0  0  1  0  0
   -1.4896  -26.2419   50.3325 C   0  0  0  1  0  0
   -2.8616  -25.6616   49.9362 C   0  0  0  1  0  0
   -3.6841  -26.3863   49.4226 O   0  0  0  1  0  0
   -3.1375  -24.3213   50.1765 N   0  0  0  1  0  0
   -4.3805  -23.6940   50.2010 C   0  0  0  1  0  0
   -4.4323  -22.2818   50.2124 C   0  0  0  1  0  0
   -5.6744  -21.6199   50.2545 C   0  0  0  1  0  0
   -6.8468  -22.3115   50.2860 N   0  0  0  1  0  0
   -6.8255  -23.6723   50.2768 C   0  0  0  1  0  0
   -5.6148  -24.3882   50.2316 C   0  0  0  1  0  0
   -1.4614  -27.8010   50.1196 C   0  0  0  1  0  0
   -2.0777  -28.6561   51.2587 C   0  0  0  1  0  0
   -3.1126  -27.8934   52.0052 N   0  0  0  1  0  0
   -4.4372  -28.3128   52.0592 C   0  0  0  1  0  0
   -5.4714  -27.3919   52.3370 C   0  0  0  1  0  0
   -6.8137  -27.7966   52.3234 C   0  0  0  1  0  0
   -7.1497  -29.1342   52.0493 C   0  0  0  1  0  0
   -8.6057  -29.5416   52.0002 C   0  0  0  1  0  0
   -9.3264  -29.3703   53.3335 C   0  0  0  1  0  0
   -9.3027  -28.2769   53.8506 O   0  0  0  1  0  0
   -9.9632  -30.3990   53.9033 O   0  0  0  1  0  0
   -9.0686  -30.6110   51.0183 C   0  0  0  1  0  0
   -9.3881  -29.1612   50.7507 C   0  0  0  1  0  0
   -6.1270  -30.0719   51.8181 C   0  0  0  1  0  0
   -4.7806  -29.6625   51.8195 C   0  0  0  1  0  0
   -2.6313  -26.6232   52.6285 C   0  0  0  1  0  0
   -1.3936  -26.0623   51.8798 C   0  0  0  1  0  0
    0.7560  -22.7828   51.5777 H   0  0
    0.8940  -23.7958   53.0309 H   0  0
   -0.5042  -23.9911   51.9413 H   0  0
    1.2214  -25.7991   51.6448 H   0  0
    3.1926  -24.5404   52.2936 H   0  0
    3.0545  -23.5273   50.8404 H   0  0
    3.4215  -25.2652   50.6804 H   0  0
    2.5147  -23.8499   49.0306 H   0  0
    1.8766  -24.0111   46.6451 H   0  0
   -0.2123  -25.2010   45.9970 H   0  0
   -1.6576  -26.1914   47.7375 H   0  0
   -2.2913  -23.6944   50.3659 H   0  0
   -3.5086  -21.7036   50.1885 H   0  0
   -5.6978  -20.5302   50.2620 H   0  0
   -7.7675  -24.2200   50.3051 H   0  0
   -5.6269  -25.4781   50.2201 H   0  0
   -0.4270  -28.1131   49.9758 H   0  0
   -1.9851  -28.0333   49.1923 H   0  0
   -1.2899  -28.9592   51.9483 H   0  0
   -2.5309  -29.5506   50.8315 H   0  0
   -5.2233  -26.3552   52.5645 H   0  0
   -7.6009  -27.0705   52.5264 H   0  0
   -9.2290  -31.1452   53.9848 H   0  0
   -9.9364  -31.1515   51.3961 H   0  0
   -8.2463  -30.9638   50.3959 H   0  0
   -8.7374  -28.7403   49.9842 H   0  0
  -10.4265  -28.9276   50.9857 H   0  0
   -6.3777  -31.1172   51.6376 H   0  0
   -3.9943  -30.3942   51.6337 H   0  0
   -2.3659  -26.8112   53.6688 H   0  0
   -3.4322  -25.8843   52.6010 H   0  0
   -1.2917  -25.0016   52.1094 H   0  0
   -0.5002  -26.5713   52.2415 H   0  0
  1  2  1  0
  2  3  1  0
  2  4  1  0
  4  5  2  0
  4  9  1  0
  5  6  1  0
  6  7  2  0
  7  8  1  0
  8  9  2  0
  9 10  1  0
 10 11  1  0
 10 20  1  0
 10 36  1  0
 11 12  2  0
 11 13  1  0
 13 14  1  0
 14 15  2  0
 14 19  1  0
 15 16  1  0
 16 17  2  0
 17 18  1  0
 18 19  2  0
 20 21  1  0
 21 22  1  0
 22 23  1  0
 22 35  1  0
 23 24  2  0
 23 34  1  0
 24 25  1  0
 25 26  2  0
 26 27  1  0
 26 33  1  0
 27 28  1  0
 27 31  1  0
 27 32  1  0
 28 29  2  0
 28 30  1  0
 31 32  1  0
 33 34  2  0
 35 36  1  0
  1 37  1  0
  1 38  1  0
  1 39  1  0
  2 40  1  0
  3 41  1  0
  3 42  1  0
  3 43  1  0
  5 44  1  0
  6 45  1  0
  7 46  1  0
  8 47  1  0
 13 48  1  0
 15 49  1  0
 16 50  1  0
 18 51  1  0
 19 52  1  0
 20 53  1  0
 20 54  1  0
 21 55  1  0
 21 56  1  0
 24 57  1  0
 25 58  1  0
 30 59  1  0
 31 60  1  0
 31 61  1  0
 32 62  1  0
 32 63  1  0
 33 64  1  0
 34 65  1  0
 35 66  1  0
 35 67  1  0
 36 68  1  0
 36 69  1  0
M  END
> <Name>
Molecule

> <AbsoluteEnergy>
73.7254

> <Clean Energy>
200.853

> <ConfNumber>
56

> <MOL_NUMBER>
4

> <RelativeEnergy>
12.2029

> <POSE_NUMBER>
60

> <LibDockScore>
120.621

> <HotSpots>
0.27,-24.92,46.38,A,19,6
-6.13,-22.12,49.98,A,41,16
-6.53,-30.72,51.78,A,56,33

$$$$
Molecule
  SciTegic05072616053D

 69 73  0  0  0  0            999 V2000
   -2.1828  -26.2888   46.4858 C   0  0  0  1  0  0
   -3.2484  -25.2458   46.8683 C   0  0  0  1  0  0
   -4.3256  -25.1199   45.7739 C   0  0  0  1  0  0
   -2.6261  -23.9182   47.2399 C   0  0  0  1  0  0
   -1.6602  -23.4076   46.3458 C   0  0  0  1  0  0
   -1.0427  -22.1729   46.5657 C   0  0  0  1  0  0
   -1.3790  -21.4232   47.6939 C   0  0  0  1  0  0
   -2.3205  -21.9158   48.6064 C   0  0  0  1  0  0
   -2.9537  -23.1736   48.4235 C   0  0  0  1  0  0
   -3.9454  -23.6766   49.4816 C   0  0  0  1  0  0
   -3.3695  -24.8795   50.2466 C   0  0  0  1  0  0
   -3.8980  -25.9618   50.1136 O   0  0  0  1  0  0
   -2.2941  -24.7267   51.1136 N   0  0  0  1  0  0
   -1.8594  -25.6819   52.0297 C   0  0  0  1  0  0
   -2.3692  -27.0015   52.0818 C   0  0  0  1  0  0
   -1.9656  -27.8696   53.1124 C   0  0  0  1  0  0
   -1.0494  -27.4887   54.0439 N   0  0  0  1  0  0
   -0.5032  -26.2415   53.9801 C   0  0  0  1  0  0
   -0.8801  -25.3238   52.9823 C   0  0  0  1  0  0
   -5.3283  -24.0187   48.8099 C   0  0  0  1  0  0
   -6.5393  -24.1329   49.7855 C   0  0  0  1  0  0
   -6.0645  -24.3025   51.1865 N   0  0  0  1  0  0
   -6.1938  -25.5070   51.8846 C   0  0  0  1  0  0
   -5.1618  -25.9515   52.7473 C   0  0  0  1  0  0
   -5.1792  -27.2450   53.2850 C   0  0  0  1  0  0
   -6.2445  -28.1117   52.9960 C   0  0  0  1  0  0
   -6.1879  -29.5456   53.4618 C   0  0  0  1  0  0
   -6.2798  -29.7132   54.9733 C   0  0  0  1  0  0
   -5.4596  -30.3979   55.5425 O   0  0  0  1  0  0
   -7.2606  -29.1145   55.6474 O   0  0  0  1  0  0
   -5.3022  -30.5047   52.6748 C   0  0  0  1  0  0
   -6.8033  -30.6184   52.5748 C   0  0  0  1  0  0
   -7.3441  -27.6388   52.2563 C   0  0  0  1  0  0
   -7.3225  -26.3417   51.7107 C   0  0  0  1  0  0
   -5.2968  -23.1197   51.6751 C   0  0  0  1  0  0
   -4.3308  -22.6039   50.5705 C   0  0  0  1  0  0
   -1.7165  -25.9849   45.5486 H   0  0
   -2.6719  -27.2524   46.3431 H   0  0
   -1.4294  -26.3652   47.2698 H   0  0
   -3.7570  -25.6002   47.7649 H   0  0
   -4.7996  -26.0917   45.6363 H   0  0
   -3.8442  -24.8243   44.8417 H   0  0
   -5.0712  -24.3783   46.0604 H   0  0
   -1.3899  -23.9891   45.4644 H   0  0
   -0.3022  -21.7975   45.8595 H   0  0
   -0.9091  -20.4547   47.8648 H   0  0
   -2.5742  -21.3171   49.4812 H   0  0
   -1.7574  -23.8019   51.0743 H   0  0
   -3.0737  -27.3445   51.3241 H   0  0
   -2.3962  -28.8695   53.1662 H   0  0
    0.2426  -25.9483   54.7190 H   0  0
   -0.4169  -24.3378   52.9446 H   0  0
   -5.5529  -23.2532   48.0672 H   0  0
   -5.2298  -24.9598   48.2688 H   0  0
   -7.1446  -23.2290   49.7173 H   0  0
   -7.1499  -24.9915   49.5060 H   0  0
   -4.3423  -25.2773   52.9963 H   0  0
   -4.3648  -27.5785   53.9282 H   0  0
   -8.1436  -29.4567   55.1939 H   0  0
   -4.8817  -31.2783   53.3173 H   0  0
   -4.8752  -30.0226   51.7954 H   0  0
   -7.1775  -30.1990   51.6409 H   0  0
   -7.1840  -31.4531   53.1634 H   0  0
   -8.2140  -28.2781   52.1056 H   0  0
   -8.1828  -25.9772   51.1494 H   0  0
   -5.9921  -22.3251   51.9457 H   0  0
   -4.7195  -23.4017   52.5556 H   0  0
   -3.4183  -22.2434   51.0455 H   0  0
   -4.7924  -21.7501   50.0745 H   0  0
  1  2  1  0
  2  3  1  0
  2  4  1  0
  4  5  2  0
  4  9  1  0
  5  6  1  0
  6  7  2  0
  7  8  1  0
  8  9  2  0
  9 10  1  0
 10 11  1  0
 10 20  1  0
 10 36  1  0
 11 12  2  0
 11 13  1  0
 13 14  1  0
 14 15  2  0
 14 19  1  0
 15 16  1  0
 16 17  2  0
 17 18  1  0
 18 19  2  0
 20 21  1  0
 21 22  1  0
 22 23  1  0
 22 35  1  0
 23 24  2  0
 23 34  1  0
 24 25  1  0
 25 26  2  0
 26 27  1  0
 26 33  1  0
 27 28  1  0
 27 31  1  0
 27 32  1  0
 28 29  2  0
 28 30  1  0
 31 32  1  0
 33 34  2  0
 35 36  1  0
  1 37  1  0
  1 38  1  0
  1 39  1  0
  2 40  1  0
  3 41  1  0
  3 42  1  0
  3 43  1  0
  5 44  1  0
  6 45  1  0
  7 46  1  0
  8 47  1  0
 13 48  1  0
 15 49  1  0
 16 50  1  0
 18 51  1  0
 19 52  1  0
 20 53  1  0
 20 54  1  0
 21 55  1  0
 21 56  1  0
 24 57  1  0
 25 58  1  0
 30 59  1  0
 31 60  1  0
 31 61  1  0
 32 62  1  0
 32 63  1  0
 33 64  1  0
 34 65  1  0
 35 66  1  0
 35 67  1  0
 36 68  1  0
 36 69  1  0
M  END
> <Name>
Molecule

> <AbsoluteEnergy>
71.1265

> <Clean Energy>
200.853

> <ConfNumber>
43

> <MOL_NUMBER>
4

> <RelativeEnergy>
9.60396

> <POSE_NUMBER>
61

> <LibDockScore>
120.4072

> <HotSpots>
-2.53,-21.12,45.98,A,16,6
-0.33,-25.52,53.19,A,64,18
-4.73,-22.32,50.38,A,46,36

$$$$
Molecule
  SciTegic05072616053D

 69 73  0  0  0  0            999 V2000
    0.7296  -23.7119   51.6524 C   0  0  0  1  0  0
    1.4099  -24.8336   50.8468 C   0  0  0  1  0  0
    2.9448  -24.6487   50.8482 C   0  0  0  1  0  0
    0.8033  -24.9617   49.4655 C   0  0  0  1  0  0
    1.5541  -24.3885   48.4093 C   0  0  0  1  0  0
    1.1368  -24.4651   47.0769 C   0  0  0  1  0  0
   -0.0575  -25.1123   46.7649 C   0  0  0  1  0  0
   -0.8320  -25.6651   47.7886 C   0  0  0  1  0  0
   -0.4519  -25.5988   49.1546 C   0  0  0  1  0  0
   -1.4837  -26.2250   50.1130 C   0  0  0  1  0  0
   -2.8642  -25.6235   49.7833 C   0  0  0  1  0  0
   -3.7198  -26.3341   49.3053 O   0  0  0  1  0  0
   -3.1094  -24.2807   50.0417 N   0  0  0  1  0  0
   -4.3397  -23.6309   50.1002 C   0  0  0  1  0  0
   -4.3630  -22.2218   50.2062 C   0  0  0  1  0  0
   -5.5917  -21.5387   50.2846 C   0  0  0  1  0  0
   -6.7781  -22.2063   50.2620 N   0  0  0  1  0  0
   -6.7843  -23.5636   50.1614 C   0  0  0  1  0  0
   -5.5880  -24.2998   50.0762 C   0  0  0  1  0  0
   -1.4871  -27.7831   49.8906 C   0  0  0  1  0  0
   -2.0625  -28.6366   51.0520 C   0  0  0  1  0  0
   -3.0514  -27.8643   51.8493 N   0  0  0  1  0  0
   -4.3779  -28.2659   51.9616 C   0  0  0  1  0  0
   -5.3849  -27.3332   52.2947 C   0  0  0  1  0  0
   -6.7320  -27.7193   52.3405 C   0  0  0  1  0  0
   -7.0993  -29.0496   52.0716 C   0  0  0  1  0  0
   -8.5617  -29.4365   52.0872 C   0  0  0  1  0  0
   -9.2485  -29.1496   53.4184 C   0  0  0  1  0  0
   -9.2599  -28.0056   53.8117 O   0  0  0  1  0  0
   -9.8190  -30.1352   54.1195 O   0  0  0  1  0  0
   -9.0625  -30.5722   51.2032 C   0  0  0  1  0  0
   -9.3677  -29.1430   50.8292 C   0  0  0  1  0  0
   -6.1019  -29.9993   51.7854 C   0  0  0  1  0  0
   -4.7512  -29.6086   51.7273 C   0  0  0  1  0  0
   -2.5244  -26.6047   52.4569 C   0  0  0  1  0  0
   -1.3146  -26.0562   51.6553 C   0  0  0  1  0  0
    0.9806  -22.7502   51.2049 H   0  0
    1.0981  -23.7369   52.6779 H   0  0
   -0.3515  -23.8510   51.6454 H   0  0
    1.2216  -25.7907   51.3333 H   0  0
    3.3046  -24.6700   51.8769 H   0  0
    3.1871  -23.6833   50.4038 H   0  0
    3.4168  -25.4472   50.2757 H   0  0
    2.4853  -23.8721   48.6425 H   0  0
    1.7422  -24.0211   46.2867 H   0  0
   -0.3857  -25.1869   45.7282 H   0  0
   -1.7640  -26.1666   47.5279 H   0  0
   -2.2476  -23.6713   50.2172 H   0  0
   -3.4276  -21.6626   50.2273 H   0  0
   -5.5931  -20.4517   50.3651 H   0  0
   -7.7374  -24.0923   50.1465 H   0  0
   -5.6221  -25.3860   49.9916 H   0  0
   -0.4648  -28.1085   49.6978 H   0  0
   -2.0559  -28.0026   48.9870 H   0  0
   -1.2483  -28.9547   51.7031 H   0  0
   -2.5473  -29.5222   50.6412 H   0  0
   -5.1118  -26.3020   52.5186 H   0  0
   -7.4986  -26.9843   52.5859 H   0  0
   -9.0487  -30.8355   54.2561 H   0  0
   -9.9288  -31.0675   51.6417 H   0  0
   -8.2600  -30.9859   50.5925 H   0  0
   -8.7292  -28.7940   50.0176 H   0  0
  -10.3969  -28.8751   51.0680 H   0  0
   -6.3756  -31.0394   51.6084 H   0  0
   -3.9849  -30.3494   51.4992 H   0  0
   -2.2143  -26.8028   53.4829 H   0  0
   -3.3153  -25.8548   52.4703 H   0  0
   -1.1876  -24.9985   51.8858 H   0  0
   -0.4127  -26.5795   51.9729 H   0  0
  1  2  1  0
  2  3  1  0
  2  4  1  0
  4  5  2  0
  4  9  1  0
  5  6  1  0
  6  7  2  0
  7  8  1  0
  8  9  2  0
  9 10  1  0
 10 11  1  0
 10 20  1  0
 10 36  1  0
 11 12  2  0
 11 13  1  0
 13 14  1  0
 14 15  2  0
 14 19  1  0
 15 16  1  0
 16 17  2  0
 17 18  1  0
 18 19  2  0
 20 21  1  0
 21 22  1  0
 22 23  1  0
 22 35  1  0
 23 24  2  0
 23 34  1  0
 24 25  1  0
 25 26  2  0
 26 27  1  0
 26 33  1  0
 27 28  1  0
 27 31  1  0
 27 32  1  0
 28 29  2  0
 28 30  1  0
 31 32  1  0
 33 34  2  0
 35 36  1  0
  1 37  1  0
  1 38  1  0
  1 39  1  0
  2 40  1  0
  3 41  1  0
  3 42  1  0
  3 43  1  0
  5 44  1  0
  6 45  1  0
  7 46  1  0
  8 47  1  0
 13 48  1  0
 15 49  1  0
 16 50  1  0
 18 51  1  0
 19 52  1  0
 20 53  1  0
 20 54  1  0
 21 55  1  0
 21 56  1  0
 24 57  1  0
 25 58  1  0
 30 59  1  0
 31 60  1  0
 31 61  1  0
 32 62  1  0
 32 63  1  0
 33 64  1  0
 34 65  1  0
 35 66  1  0
 35 67  1  0
 36 68  1  0
 36 69  1  0
M  END
> <Name>
Molecule

> <AbsoluteEnergy>
73.7254

> <Clean Energy>
200.853

> <ConfNumber>
56

> <MOL_NUMBER>
4

> <RelativeEnergy>
12.2029

> <POSE_NUMBER>
62

> <LibDockScore>
120.2542

> <HotSpots>
1.87,-25.32,48.38,A,30,3
-6.13,-22.12,49.98,A,41,16
-7.33,-24.12,50.38,A,44,18

$$$$
Molecule
  SciTegic05072616053D

 69 73  0  0  0  0            999 V2000
   -4.3461  -31.0544   56.3051 C   0  0  0  1  0  0
   -4.9635  -31.1132   54.8923 C   0  0  0  1  0  0
   -5.3280  -32.5596   54.5062 C   0  0  0  1  0  0
   -6.1465  -30.1781   54.7467 C   0  0  0  1  0  0
   -7.2590  -30.4587   55.5724 C   0  0  0  1  0  0
   -8.4241  -29.6877   55.5161 C   0  0  0  1  0  0
   -8.5016  -28.6196   54.6231 C   0  0  0  1  0  0
   -7.4117  -28.3192   53.7964 C   0  0  0  1  0  0
   -6.2021  -29.0646   53.8398 C   0  0  0  1  0  0
   -5.0364  -28.6593   52.9204 C   0  0  0  1  0  0
   -5.3796  -27.4626   51.9932 C   0  0  0  1  0  0
   -5.8027  -27.6763   50.8776 O   0  0  0  1  0  0
   -5.1892  -26.1504   52.4094 N   0  0  0  1  0  0
   -5.5769  -25.0085   51.7205 C   0  0  0  1  0  0
   -6.6401  -24.9879   50.7888 C   0  0  0  1  0  0
   -6.9545  -23.7938   50.1110 C   0  0  0  1  0  0
   -6.2614  -22.6434   50.3387 N   0  0  0  1  0  0
   -5.2441  -22.6374   51.2459 C   0  0  0  1  0  0
   -4.8841  -23.8001   51.9537 C   0  0  0  1  0  0
   -3.7331  -28.2727   53.7356 C   0  0  0  1  0  0
   -2.4246  -28.7594   53.0825 C   0  0  0  1  0  0
   -2.5424  -28.6456   51.6082 N   0  0  0  1  0  0
   -1.8949  -27.6666   50.8600 C   0  0  0  1  0  0
   -1.8097  -27.7685   49.4526 C   0  0  0  1  0  0
   -1.2023  -26.7546   48.6948 C   0  0  0  1  0  0
   -0.6634  -25.6223   49.3312 C   0  0  0  1  0  0
   -0.0329  -24.5195   48.5167 C   0  0  0  1  0  0
    1.4447  -24.7535   48.2485 C   0  0  0  1  0  0
    1.8705  -24.5871   47.1290 O   0  0  0  1  0  0
    2.2416  -25.1363   49.2448 O   0  0  0  1  0  0
   -0.5069  -23.0887   48.7193 C   0  0  0  1  0  0
   -0.8595  -23.8200   47.4481 C   0  0  0  1  0  0
   -0.7147  -25.5233   50.7318 C   0  0  0  1  0  0
   -1.3249  -26.5349   51.4893 C   0  0  0  1  0  0
   -3.4999  -29.6174   51.0099 C   0  0  0  1  0  0
   -4.7072  -29.8630   51.9581 C   0  0  0  1  0  0
   -3.4490  -31.6732   56.3224 H   0  0
   -5.0665  -31.4518   57.0200 H   0  0
   -4.0938  -30.0260   56.5637 H   0  0
   -4.2041  -30.7646   54.1924 H   0  0
   -6.0423  -32.9476   55.2324 H   0  0
   -4.4247  -33.1690   54.5348 H   0  0
   -5.7625  -32.5849   53.5069 H   0  0
   -7.2074  -31.2954   56.2691 H   0  0
   -9.2671  -29.9203   56.1667 H   0  0
   -9.4096  -28.0190   54.5685 H   0  0
   -7.4936  -27.4870   53.0972 H   0  0
   -4.6977  -26.0063   53.3489 H   0  0
   -7.2149  -25.8936   50.5955 H   0  0
   -7.7705  -23.7902   49.3883 H   0  0
   -4.6973  -21.7121   51.4274 H   0  0
   -4.0722  -23.7676   52.6803 H   0  0
   -3.8038  -28.6961   54.7375 H   0  0
   -3.6910  -27.1886   53.8405 H   0  0
   -2.2466  -29.8001   53.3534 H   0  0
   -1.5941  -28.1445   53.4293 H   0  0
   -2.2203  -28.6442   48.9500 H   0  0
   -1.1483  -26.8454   47.6099 H   0  0
    1.8016  -26.0132   49.6190 H   0  0
    0.3005  -22.3736   48.5616 H   0  0
   -1.3532  -23.0415   49.4046 H   0  0
   -1.8942  -24.1628   47.4547 H   0  0
   -0.2396  -23.4962   46.6121 H   0  0
   -0.2792  -24.6581   51.2316 H   0  0
   -1.3601  -26.4477   52.5752 H   0  0
   -2.9880  -30.5624   50.8280 H   0  0
   -3.8630  -29.2257   50.0597 H   0  0
   -5.5875  -30.0808   51.3533 H   0  0
   -4.5038  -30.7483   52.5606 H   0  0
  1  2  1  0
  2  3  1  0
  2  4  1  0
  4  5  2  0
  4  9  1  0
  5  6  1  0
  6  7  2  0
  7  8  1  0
  8  9  2  0
  9 10  1  0
 10 11  1  0
 10 20  1  0
 10 36  1  0
 11 12  2  0
 11 13  1  0
 13 14  1  0
 14 15  2  0
 14 19  1  0
 15 16  1  0
 16 17  2  0
 17 18  1  0
 18 19  2  0
 20 21  1  0
 21 22  1  0
 22 23  1  0
 22 35  1  0
 23 24  2  0
 23 34  1  0
 24 25  1  0
 25 26  2  0
 26 27  1  0
 26 33  1  0
 27 28  1  0
 27 31  1  0
 27 32  1  0
 28 29  2  0
 28 30  1  0
 31 32  1  0
 33 34  2  0
 35 36  1  0
  1 37  1  0
  1 38  1  0
  1 39  1  0
  2 40  1  0
  3 41  1  0
  3 42  1  0
  3 43  1  0
  5 44  1  0
  6 45  1  0
  7 46  1  0
  8 47  1  0
 13 48  1  0
 15 49  1  0
 16 50  1  0
 18 51  1  0
 19 52  1  0
 20 53  1  0
 20 54  1  0
 21 55  1  0
 21 56  1  0
 24 57  1  0
 25 58  1  0
 30 59  1  0
 31 60  1  0
 31 61  1  0
 32 62  1  0
 32 63  1  0
 33 64  1  0
 34 65  1  0
 35 66  1  0
 35 67  1  0
 36 68  1  0
 36 69  1  0
M  END
> <Name>
Molecule

> <AbsoluteEnergy>
68.7182

> <Clean Energy>
200.853

> <ConfNumber>
26

> <MOL_NUMBER>
4

> <RelativeEnergy>
7.19564

> <POSE_NUMBER>
63

> <LibDockScore>
119.7007

> <HotSpots>
-8.73,-28.12,54.38,A,70,6
-5.53,-22.92,48.98,A,33,16
2.67,-25.52,46.78,P,25,29

$$$$
Molecule
  SciTegic05072616053D

 69 73  0  0  0  0            999 V2000
   -2.2835  -26.3674   46.4898 C   0  0  0  1  0  0
   -3.3180  -25.2778   46.8253 C   0  0  0  1  0  0
   -4.3257  -25.0906   45.6749 C   0  0  0  1  0  0
   -2.6547  -23.9850   47.2456 C   0  0  0  1  0  0
   -1.6787  -23.4676   46.3667 C   0  0  0  1  0  0
   -1.0239  -22.2613   46.6319 C   0  0  0  1  0  0
   -1.3321  -21.5479   47.7911 C   0  0  0  1  0  0
   -2.2832  -22.0489   48.6891 C   0  0  0  1  0  0
   -2.9542  -23.2792   48.4601 C   0  0  0  1  0  0
   -3.9549  -23.7950   49.5035 C   0  0  0  1  0  0
   -3.4078  -25.0395   50.2215 C   0  0  0  1  0  0
   -3.9388  -26.1097   50.0187 O   0  0  0  1  0  0
   -2.3561  -24.9390   51.1244 N   0  0  0  1  0  0
   -1.9948  -25.9171   52.0482 C   0  0  0  1  0  0
   -2.5023  -27.2384   52.0238 C   0  0  0  1  0  0
   -2.1818  -28.1326   53.0613 C   0  0  0  1  0  0
   -1.3469  -27.7748   54.0747 N   0  0  0  1  0  0
   -0.8019  -26.5255   54.0886 C   0  0  0  1  0  0
   -1.0987  -25.5826   53.0873 C   0  0  0  1  0  0
   -5.3485  -24.0765   48.8257 C   0  0  0  1  0  0
   -6.5588  -24.1951   49.8018 C   0  0  0  1  0  0
   -6.0837  -24.4281   51.1935 N   0  0  0  1  0  0
   -6.2418  -25.6536   51.8477 C   0  0  0  1  0  0
   -5.2457  -26.1267   52.7371 C   0  0  0  1  0  0
   -5.2856  -27.4364   53.2329 C   0  0  0  1  0  0
   -6.3387  -28.2917   52.8740 C   0  0  0  1  0  0
   -6.3018  -29.7396   53.2965 C   0  0  0  1  0  0
   -6.5404  -29.9600   54.7850 C   0  0  0  1  0  0
   -5.5893  -30.0757   55.5249 O   0  0  0  1  0  0
   -7.7859  -30.0306   55.2524 O   0  0  0  1  0  0
   -5.3242  -30.6575   52.5715 C   0  0  0  1  0  0
   -6.8055  -30.7910   52.3181 C   0  0  0  1  0  0
   -7.4072  -27.7939   52.1056 C   0  0  0  1  0  0
   -7.3629  -26.4804   51.6023 C   0  0  0  1  0  0
   -5.2839  -23.2841   51.7217 C   0  0  0  1  0  0
   -4.3087  -22.7532   50.6325 C   0  0  0  1  0  0
   -1.7521  -26.0779   45.5832 H   0  0
   -2.8091  -27.3051   46.3094 H   0  0
   -1.5792  -26.4868   47.3131 H   0  0
   -3.8918  -25.6152   47.6885 H   0  0
   -4.8370  -26.0373   45.5002 H   0  0
   -3.7800  -24.8101   44.7740 H   0  0
   -5.0500  -24.3166   45.9286 H   0  0
   -1.4301  -24.0210   45.4611 H   0  0
   -0.2762  -21.8797   45.9366 H   0  0
   -0.8329  -20.6012   47.9976 H   0  0
   -2.5147  -21.4785   49.5887 H   0  0
   -1.7779  -24.0388   51.1088 H   0  0
   -3.1407  -27.5625   51.2019 H   0  0
   -2.6117  -29.1342   53.0534 H   0  0
   -0.1206  -26.2506   54.8938 H   0  0
   -0.6376  -24.5953   53.1135 H   0  0
   -5.5557  -23.2788   48.1124 H   0  0
   -5.2762  -24.9994   48.2502 H   0  0
   -7.1407  -23.2740   49.7694 H   0  0
   -7.1924  -25.0268   49.4938 H   0  0
   -4.4366  -25.4621   53.0400 H   0  0
   -4.4982  -27.7913   53.8978 H   0  0
   -8.2355  -30.8012   54.6988 H   0  0
   -4.9552  -31.4459   53.2275 H   0  0
   -4.8210  -30.1391   51.7553 H   0  0
   -7.0927  -30.3459   51.3655 H   0  0
   -7.2271  -31.6511   52.8383 H   0  0
   -8.2706  -28.4266   51.8999 H   0  0
   -8.1996  -26.0969   51.0184 H   0  0
   -5.9574  -22.4823   52.0243 H   0  0
   -4.7110  -23.6130   52.5887 H   0  0
   -3.3856  -22.4339   51.1163 H   0  0
   -4.7498  -21.8702   50.1700 H   0  0
  1  2  1  0
  2  3  1  0
  2  4  1  0
  4  5  2  0
  4  9  1  0
  5  6  1  0
  6  7  2  0
  7  8  1  0
  8  9  2  0
  9 10  1  0
 10 11  1  0
 10 20  1  0
 10 36  1  0
 11 12  2  0
 11 13  1  0
 13 14  1  0
 14 15  2  0
 14 19  1  0
 15 16  1  0
 16 17  2  0
 17 18  1  0
 18 19  2  0
 20 21  1  0
 21 22  1  0
 22 23  1  0
 22 35  1  0
 23 24  2  0
 23 34  1  0
 24 25  1  0
 25 26  2  0
 26 27  1  0
 26 33  1  0
 27 28  1  0
 27 31  1  0
 27 32  1  0
 28 29  2  0
 28 30  1  0
 31 32  1  0
 33 34  2  0
 35 36  1  0
  1 37  1  0
  1 38  1  0
  1 39  1  0
  2 40  1  0
  3 41  1  0
  3 42  1  0
  3 43  1  0
  5 44  1  0
  6 45  1  0
  7 46  1  0
  8 47  1  0
 13 48  1  0
 15 49  1  0
 16 50  1  0
 18 51  1  0
 19 52  1  0
 20 53  1  0
 20 54  1  0
 21 55  1  0
 21 56  1  0
 24 57  1  0
 25 58  1  0
 30 59  1  0
 31 60  1  0
 31 61  1  0
 32 62  1  0
 32 63  1  0
 33 64  1  0
 34 65  1  0
 35 66  1  0
 35 67  1  0
 36 68  1  0
 36 69  1  0
M  END
> <Name>
Molecule

> <AbsoluteEnergy>
71.1265

> <Clean Energy>
200.853

> <ConfNumber>
43

> <MOL_NUMBER>
4

> <RelativeEnergy>
9.60396

> <POSE_NUMBER>
64

> <LibDockScore>
118.6341

> <HotSpots>
-1.73,-21.72,46.78,A,24,7
-6.53,-30.72,51.78,A,56,31
-5.13,-23.32,51.38,A,54,35

$$$$
Molecule
  SciTegic05072616053D

 69 73  0  0  0  0            999 V2000
   -3.8333  -30.9406   53.6353 C   0  0  0  1  0  0
   -3.4124  -29.4744   53.4194 C   0  0  0  1  0  0
   -2.1748  -29.1300   54.2737 C   0  0  0  1  0  0
   -3.2020  -29.1629   51.9527 C   0  0  0  1  0  0
   -2.2281  -29.9295   51.2735 C   0  0  0  1  0  0
   -1.9895  -29.7535   49.9068 C   0  0  0  1  0  0
   -2.7382  -28.8165   49.1899 C   0  0  0  1  0  0
   -3.7053  -28.0443   49.8455 C   0  0  0  1  0  0
   -3.9331  -28.1554   51.2405 C   0  0  0  1  0  0
   -4.9396  -27.2236   51.9433 C   0  0  0  1  0  0
   -6.1262  -28.0448   52.4861 C   0  0  0  1  0  0
   -6.4704  -29.0516   51.9081 O   0  0  0  1  0  0
   -6.7860  -27.6236   53.6331 N   0  0  0  1  0  0
   -7.7921  -28.2683   54.3507 C   0  0  0  1  0  0
   -8.3309  -29.5348   54.0128 C   0  0  0  1  0  0
   -9.3436  -30.1034   54.8081 C   0  0  0  1  0  0
   -9.8323  -29.4629   55.9067 N   0  0  0  1  0  0
   -9.3352  -28.2426   56.2490 C   0  0  0  1  0  0
   -8.3210  -27.6255   55.4944 C   0  0  0  1  0  0
   -4.1905  -26.4269   53.0914 C   0  0  0  1  0  0
   -3.9829  -24.9296   52.8145 C   0  0  0  1  0  0
   -3.5676  -24.7692   51.4024 N   0  0  0  1  0  0
   -2.2647  -24.4761   51.0095 C   0  0  0  1  0  0
   -1.9826  -24.0522   49.6915 C   0  0  0  1  0  0
   -0.6586  -23.8245   49.2796 C   0  0  0  1  0  0
    0.4031  -24.0072   50.1822 C   0  0  0  1  0  0
    1.8289  -23.8145   49.7285 C   0  0  0  1  0  0
    2.1498  -24.6356   48.4888 C   0  0  0  1  0  0
    2.1086  -24.1035   47.4041 O   0  0  0  1  0  0
    2.4641  -25.9240   48.6167 O   0  0  0  1  0  0
    2.4983  -22.4603   49.8994 C   0  0  0  1  0  0
    2.9219  -23.6194   50.7676 C   0  0  0  1  0  0
    0.1314  -24.3838   51.5076 C   0  0  0  1  0  0
   -1.1901  -24.6175   51.9183 C   0  0  0  1  0  0
   -4.6581  -25.0464   50.4340 C   0  0  0  1  0  0
   -5.5969  -26.1600   50.9765 C   0  0  0  1  0  0
   -4.0655  -31.0908   54.6896 H   0  0
   -3.0051  -31.5917   53.3554 H   0  0
   -4.7078  -31.1722   53.0272 H   0  0
   -4.2290  -28.8353   53.7554 H   0  0
   -1.3545  -29.7896   53.9908 H   0  0
   -2.4149  -29.2887   55.3250 H   0  0
   -1.8865  -28.0912   54.1128 H   0  0
   -1.6519  -30.6721   51.8255 H   0  0
   -1.2238  -30.3439   49.4036 H   0  0
   -2.5696  -28.6866   48.1209 H   0  0
   -4.3000  -27.3376   49.2667 H   0  0
   -6.4800  -26.6737   54.0190 H   0  0
   -7.9612  -30.0685   53.1372 H   0  0
   -9.7465  -31.0797   54.5385 H   0  0
   -9.7317  -27.7326   57.1269 H   0  0
   -7.9412  -26.6482   55.7922 H   0  0
   -4.7558  -26.5337   54.0172 H   0  0
   -3.2168  -26.8870   53.2596 H   0  0
   -4.9165  -24.3932   52.9843 H   0  0
   -3.2049  -24.5395   53.4708 H   0  0
   -2.8004  -23.9003   48.9871 H   0  0
   -0.4545  -23.5054   48.2575 H   0  0
    1.6519  -26.3493   49.1284 H   0  0
    1.8593  -21.7636   50.4421 H   0  0
    3.2194  -22.2679   49.1050 H   0  0
    3.8693  -24.0449   50.4366 H   0  0
    2.5080  -23.5416   51.7730 H   0  0
    0.9493  -24.4949   52.2194 H   0  0
   -1.3905  -24.9111   52.9487 H   0  0
   -5.2353  -24.1363   50.2705 H   0  0
   -4.2269  -25.3688   49.4862 H   0  0
   -6.0312  -26.6872   50.1271 H   0  0
   -6.4277  -25.6847   51.4980 H   0  0
  1  2  1  0
  2  3  1  0
  2  4  1  0
  4  5  2  0
  4  9  1  0
  5  6  1  0
  6  7  2  0
  7  8  1  0
  8  9  2  0
  9 10  1  0
 10 11  1  0
 10 20  1  0
 10 36  1  0
 11 12  2  0
 11 13  1  0
 13 14  1  0
 14 15  2  0
 14 19  1  0
 15 16  1  0
 16 17  2  0
 17 18  1  0
 18 19  2  0
 20 21  1  0
 21 22  1  0
 22 23  1  0
 22 35  1  0
 23 24  2  0
 23 34  1  0
 24 25  1  0
 25 26  2  0
 26 27  1  0
 26 33  1  0
 27 28  1  0
 27 31  1  0
 27 32  1  0
 28 29  2  0
 28 30  1  0
 31 32  1  0
 33 34  2  0
 35 36  1  0
  1 37  1  0
  1 38  1  0
  1 39  1  0
  2 40  1  0
  3 41  1  0
  3 42  1  0
  3 43  1  0
  5 44  1  0
  6 45  1  0
  7 46  1  0
  8 47  1  0
 13 48  1  0
 15 49  1  0
 16 50  1  0
 18 51  1  0
 19 52  1  0
 20 53  1  0
 20 54  1  0
 21 55  1  0
 21 56  1  0
 24 57  1  0
 25 58  1  0
 30 59  1  0
 31 60  1  0
 31 61  1  0
 32 62  1  0
 32 63  1  0
 33 64  1  0
 34 65  1  0
 35 66  1  0
 35 67  1  0
 36 68  1  0
 36 69  1  0
M  END
> <Name>
Molecule

> <AbsoluteEnergy>
66.912

> <Clean Energy>
200.853

> <ConfNumber>
17

> <MOL_NUMBER>
4

> <RelativeEnergy>
5.3895

> <POSE_NUMBER>
65

> <LibDockScore>
118.1298

> <HotSpots>
-1.93,-29.12,49.19,A,34,7
-8.73,-28.12,54.38,A,70,19
3.47,-25.92,50.78,P,39,30

$$$$
Molecule
  SciTegic05072616053D

 69 73  0  0  0  0            999 V2000
   -2.9512  -29.8828   52.7331 C   0  0  0  1  0  0
   -2.9678  -28.3426   52.7582 C   0  0  0  1  0  0
   -1.8570  -27.8204   53.6971 C   0  0  0  1  0  0
   -2.8881  -27.7863   51.3514 C   0  0  0  1  0  0
   -1.7572  -28.1554   50.5841 C   0  0  0  1  0  0
   -1.6787  -27.8601   49.2195 C   0  0  0  1  0  0
   -2.7349  -27.1965   48.5941 C   0  0  0  1  0  0
   -3.8268  -26.7562   49.3523 C   0  0  0  1  0  0
   -3.8910  -26.9445   50.7591 C   0  0  0  1  0  0
   -5.0254  -26.2599   51.5624 C   0  0  0  1  0  0
   -5.9225  -27.3533   52.1642 C   0  0  0  1  0  0
   -5.6644  -28.5177   51.9408 O   0  0  0  1  0  0
   -7.0060  -27.0374   52.9739 N   0  0  0  1  0  0
   -7.5700  -27.9105   53.8929 C   0  0  0  1  0  0
   -8.7957  -27.6155   54.5323 C   0  0  0  1  0  0
   -9.3256  -28.5235   55.4720 C   0  0  0  1  0  0
   -8.6822  -29.6851   55.7849 N   0  0  0  1  0  0
   -7.4963  -29.9825   55.1827 C   0  0  0  1  0  0
   -6.9170  -29.1158   54.2414 C   0  0  0  1  0  0
   -4.4573  -25.3359   52.7266 C   0  0  0  1  0  0
   -4.1099  -23.8834   52.3224 C   0  0  0  1  0  0
   -3.7950  -23.8806   50.8827 N   0  0  0  1  0  0
   -2.4918  -23.9142   50.3991 C   0  0  0  1  0  0
   -1.4933  -24.4297   51.2499 C   0  0  0  1  0  0
   -0.1927  -24.6455   50.7913 C   0  0  0  1  0  0
    0.1519  -24.3158   49.4713 C   0  0  0  1  0  0
    1.5400  -24.6503   48.9753 C   0  0  0  1  0  0
    2.6328  -24.4488   50.0149 C   0  0  0  1  0  0
    2.5568  -25.0585   51.0583 O   0  0  0  1  0  0
    3.6456  -23.6213   49.7551 O   0  0  0  1  0  0
    1.8789  -24.5233   47.4974 C   0  0  0  1  0  0
    1.6732  -25.8897   48.1011 C   0  0  0  1  0  0
   -0.8060  -23.6995   48.6392 C   0  0  0  1  0  0
   -2.1274  -23.5042   49.0961 C   0  0  0  1  0  0
   -5.0067  -24.0825   50.0463 C   0  0  0  1  0  0
   -5.8554  -25.2529   50.6668 C   0  0  0  1  0  0
   -3.1196  -30.2622   53.7410 H   0  0
   -1.9812  -30.2277   52.3749 H   0  0
   -3.7357  -30.2478   52.0701 H   0  0
   -3.9137  -27.9863   53.1662 H   0  0
   -0.8881  -28.1672   53.3380 H   0  0
   -2.0265  -28.2018   54.7040 H   0  0
   -1.8715  -26.7306   53.7126 H   0  0
   -0.9320  -28.6797   51.0661 H   0  0
   -0.7966  -28.1470   48.6471 H   0  0
   -2.7101  -27.0214   47.5185 H   0  0
   -4.6523  -26.2539   48.8480 H   0  0
   -7.4321  -26.0601   52.8833 H   0  0
   -9.3275  -26.6927   54.3006 H   0  0
  -10.2722  -28.2917   55.9602 H   0  0
   -6.9869  -30.9121   55.4368 H   0  0
   -5.9637  -29.3722   53.7792 H   0  0
   -5.1893  -25.3040   53.5336 H   0  0
   -3.5622  -25.8032   53.1372 H   0  0
   -4.9650  -23.2348   52.5127 H   0  0
   -3.2436  -23.5409   52.8884 H   0  0
   -1.7413  -24.6642   52.2851 H   0  0
    0.5564  -25.0707   51.4593 H   0  0
    3.1903  -22.7022   49.5304 H   0  0
    2.9361  -24.3046   47.3469 H   0  0
    1.0138  -24.2058   46.9152 H   0  0
    0.6983  -26.3022   47.8412 H   0  0
    2.6205  -26.4003   48.2744 H   0  0
   -0.5245  -23.3724   47.6383 H   0  0
   -2.8663  -23.0376   48.4446 H   0  0
   -5.5999  -23.1682   50.0350 H   0  0
   -4.7116  -24.3452   49.0304 H   0  0
   -6.3270  -25.8102   49.8574 H   0  0
   -6.6552  -24.8230   51.2698 H   0  0
  1  2  1  0
  2  3  1  0
  2  4  1  0
  4  5  2  0
  4  9  1  0
  5  6  1  0
  6  7  2  0
  7  8  1  0
  8  9  2  0
  9 10  1  0
 10 11  1  0
 10 20  1  0
 10 36  1  0
 11 12  2  0
 11 13  1  0
 13 14  1  0
 14 15  2  0
 14 19  1  0
 15 16  1  0
 16 17  2  0
 17 18  1  0
 18 19  2  0
 20 21  1  0
 21 22  1  0
 22 23  1  0
 22 35  1  0
 23 24  2  0
 23 34  1  0
 24 25  1  0
 25 26  2  0
 26 27  1  0
 26 33  1  0
 27 28  1  0
 27 31  1  0
 27 32  1  0
 28 29  2  0
 28 30  1  0
 31 32  1  0
 33 34  2  0
 35 36  1  0
  1 37  1  0
  1 38  1  0
  1 39  1  0
  2 40  1  0
  3 41  1  0
  3 42  1  0
  3 43  1  0
  5 44  1  0
  6 45  1  0
  7 46  1  0
  8 47  1  0
 13 48  1  0
 15 49  1  0
 16 50  1  0
 18 51  1  0
 19 52  1  0
 20 53  1  0
 20 54  1  0
 21 55  1  0
 21 56  1  0
 24 57  1  0
 25 58  1  0
 30 59  1  0
 31 60  1  0
 31 61  1  0
 32 62  1  0
 32 63  1  0
 33 64  1  0
 34 65  1  0
 35 66  1  0
 35 67  1  0
 36 68  1  0
 36 69  1  0
M  END
> <Name>
Molecule

> <AbsoluteEnergy>
79.7131

> <Clean Energy>
200.853

> <ConfNumber>
95

> <MOL_NUMBER>
4

> <RelativeEnergy>
18.1906

> <POSE_NUMBER>
66

> <LibDockScore>
118.0487

> <HotSpots>
-8.73,-28.12,54.38,A,70,15
1.87,-25.32,48.38,A,30,32
-5.33,-24.12,49.78,A,36,35

$$$$
Molecule
  SciTegic05072616053D

 69 73  0  0  0  0            999 V2000
   -1.8415  -25.9744   51.5888 C   0  0  0  1  0  0
   -1.1111  -26.1356   52.9415 C   0  0  0  1  0  0
   -0.7492  -24.8358   53.6984 C   0  0  0  1  0  0
   -1.5584  -27.2794   53.8473 C   0  0  0  1  0  0
   -0.6231  -27.5774   54.8681 C   0  0  0  1  0  0
   -0.8172  -28.6167   55.7788 C   0  0  0  1  0  0
   -1.9638  -29.4018   55.6912 C   0  0  0  1  0  0
   -2.9169  -29.1309   54.7007 C   0  0  0  1  0  0
   -2.7767  -28.0598   53.7731 C   0  0  0  1  0  0
   -3.9371  -27.8700   52.7711 C   0  0  0  1  0  0
   -5.1613  -28.7636   53.0869 C   0  0  0  1  0  0
   -5.4090  -29.7013   52.3615 O   0  0  0  1  0  0
   -5.9654  -28.4984   54.1923 N   0  0  0  1  0  0
   -7.2723  -28.9259   54.4254 C   0  0  0  1  0  0
   -7.8768  -28.6302   55.6725 C   0  0  0  1  0  0
   -9.1989  -29.0368   55.9310 C   0  0  0  1  0  0
   -9.9240  -29.7229   55.0027 N   0  0  0  1  0  0
   -9.3667  -30.0229   53.7958 C   0  0  0  1  0  0
   -8.0526  -29.6332   53.4752 C   0  0  0  1  0  0
   -3.4138  -28.2936   51.3502 C   0  0  0  1  0  0
   -4.3255  -27.8935   50.1639 C   0  0  0  1  0  0
   -4.7115  -26.4671   50.3056 N   0  0  0  1  0  0
   -4.2876  -25.4734   49.4314 C   0  0  0  1  0  0
   -4.7265  -24.1393   49.6048 C   0  0  0  1  0  0
   -4.2306  -23.1094   48.7891 C   0  0  0  1  0  0
   -3.2799  -23.3920   47.7914 C   0  0  0  1  0  0
   -2.6720  -22.2690   46.9806 C   0  0  0  1  0  0
   -3.6176  -21.6318   45.9652 C   0  0  0  1  0  0
   -3.2839  -20.6160   45.3920 O   0  0  0  1  0  0
   -4.7940  -22.1993   45.7107 O   0  0  0  1  0  0
   -1.2009  -22.3656   46.6068 C   0  0  0  1  0  0
   -1.6350  -21.3918   47.6752 C   0  0  0  1  0  0
   -2.8891  -24.7247   47.5686 C   0  0  0  1  0  0
   -3.3934  -25.7589   48.3772 C   0  0  0  1  0  0
   -5.4803  -26.1866   51.5401 C   0  0  0  1  0  0
   -4.5360  -26.4186   52.7285 C   0  0  0  1  0  0
   -1.1968  -25.3528   50.9674 H   0  0
   -2.7470  -25.4050   51.7983 H   0  0
   -2.0647  -26.9290   51.1123 H   0  0
   -0.1503  -26.4879   52.5662 H   0  0
   -1.6864  -24.2994   53.8467 H   0  0
   -0.1362  -24.2472   53.0159 H   0  0
   -0.2372  -25.0246   54.6419 H   0  0
    0.2809  -26.9732   54.9452 H   0  0
   -0.0761  -28.8126   56.5537 H   0  0
   -2.1192  -30.2236   56.3902 H   0  0
   -3.8010  -29.7654   54.6377 H   0  0
   -5.5267  -27.8920   54.9570 H   0  0
   -7.3164  -28.0866   56.4332 H   0  0
   -9.6524  -28.7983   56.8930 H   0  0
   -9.9518  -30.5772   53.0620 H   0  0
   -7.6351  -29.8747   52.4977 H   0  0
   -3.2799  -29.3752   51.3352 H   0  0
   -2.4293  -27.8521   51.1955 H   0  0
   -5.2214  -28.5144   50.1663 H   0  0
   -3.7862  -28.0329   49.2270 H   0  0
   -5.4574  -23.9086   50.3799 H   0  0
   -4.5834  -22.0877   48.9294 H   0  0
   -5.2652  -22.2680   46.6465 H   0  0
   -0.9938  -21.8613   45.6629 H   0  0
   -0.7370  -23.2537   47.0361 H   0  0
   -1.4045  -21.7613   48.6744 H   0  0
   -1.6631  -20.3687   47.3003 H   0  0
   -2.1911  -24.9573   46.7643 H   0  0
   -3.0914  -26.7891   48.1884 H   0  0
   -5.8191  -25.1506   51.5365 H   0  0
   -6.3307  -26.8650   51.6086 H   0  0
   -5.0816  -26.2334   53.6537 H   0  0
   -3.7192  -25.6989   52.6752 H   0  0
  1  2  1  0
  2  3  1  0
  2  4  1  0
  4  5  2  0
  4  9  1  0
  5  6  1  0
  6  7  2  0
  7  8  1  0
  8  9  2  0
  9 10  1  0
 10 11  1  0
 10 20  1  0
 10 36  1  0
 11 12  2  0
 11 13  1  0
 13 14  1  0
 14 15  2  0
 14 19  1  0
 15 16  1  0
 16 17  2  0
 17 18  1  0
 18 19  2  0
 20 21  1  0
 21 22  1  0
 22 23  1  0
 22 35  1  0
 23 24  2  0
 23 34  1  0
 24 25  1  0
 25 26  2  0
 26 27  1  0
 26 33  1  0
 27 28  1  0
 27 31  1  0
 27 32  1  0
 28 29  2  0
 28 30  1  0
 31 32  1  0
 33 34  2  0
 35 36  1  0
  1 37  1  0
  1 38  1  0
  1 39  1  0
  2 40  1  0
  3 41  1  0
  3 42  1  0
  3 43  1  0
  5 44  1  0
  6 45  1  0
  7 46  1  0
  8 47  1  0
 13 48  1  0
 15 49  1  0
 16 50  1  0
 18 51  1  0
 19 52  1  0
 20 53  1  0
 20 54  1  0
 21 55  1  0
 21 56  1  0
 24 57  1  0
 25 58  1  0
 30 59  1  0
 31 60  1  0
 31 61  1  0
 32 62  1  0
 32 63  1  0
 33 64  1  0
 34 65  1  0
 35 66  1  0
 35 67  1  0
 36 68  1  0
 36 69  1  0
M  END
> <Name>
Molecule

> <AbsoluteEnergy>
77.456

> <Clean Energy>
200.853

> <ConfNumber>
82

> <MOL_NUMBER>
4

> <RelativeEnergy>
15.9335

> <POSE_NUMBER>
67

> <LibDockScore>
117.3153

> <HotSpots>
-0.93,-28.12,54.98,A,74,5
-9.53,-30.12,52.78,A,62,18
0.27,-22.52,46.78,A,23,31

$$$$
Molecule
  SciTegic05072616053D

 69 73  0  0  0  0            999 V2000
   -0.8375  -23.0884   47.0301 C   0  0  0  1  0  0
   -0.4671  -24.4461   47.6541 C   0  0  0  1  0  0
   -0.0829  -25.4802   46.5795 C   0  0  0  1  0  0
    0.5976  -24.3048   48.7182 C   0  0  0  1  0  0
    1.8592  -23.8234   48.3019 C   0  0  0  1  0  0
    2.9118  -23.6654   49.2102 C   0  0  0  1  0  0
    2.7190  -23.9848   50.5565 C   0  0  0  1  0  0
    1.4748  -24.4584   50.9921 C   0  0  0  1  0  0
    0.3865  -24.6258   50.0982 C   0  0  0  1  0  0
   -0.9619  -25.1364   50.6231 C   0  0  0  1  0  0
   -2.0705  -24.1460   50.2202 C   0  0  0  1  0  0
   -1.8702  -22.9617   50.3894 O   0  0  0  1  0  0
   -3.2700  -24.5703   49.6694 N   0  0  0  1  0  0
   -4.4789  -23.9329   49.8707 C   0  0  0  1  0  0
   -5.6921  -24.6022   49.6103 C   0  0  0  1  0  0
   -6.9128  -23.9318   49.8221 C   0  0  0  1  0  0
   -6.9472  -22.6497   50.2855 N   0  0  0  1  0  0
   -5.7825  -21.9912   50.5457 C   0  0  0  1  0  0
   -4.5328  -22.6072   50.3471 C   0  0  0  1  0  0
   -1.1613  -26.6320   50.1688 C   0  0  0  1  0  0
   -1.8212  -27.5875   51.1969 C   0  0  0  1  0  0
   -2.8227  -26.9123   52.0698 N   0  0  0  1  0  0
   -4.0723  -27.4604   52.3168 C   0  0  0  1  0  0
   -4.2275  -28.8576   52.4562 C   0  0  0  1  0  0
   -5.4801  -29.4059   52.7786 C   0  0  0  1  0  0
   -6.5944  -28.5671   52.9626 C   0  0  0  1  0  0
   -7.9246  -29.1450   53.3961 C   0  0  0  1  0  0
   -7.9555  -29.4897   54.8863 C   0  0  0  1  0  0
   -8.4471  -30.5357   55.2488 O   0  0  0  1  0  0
   -7.4338  -28.6208   55.7572 O   0  0  0  1  0  0
   -8.7069  -30.0122   52.4200 C   0  0  0  1  0  0
   -9.2019  -28.6250   52.7543 C   0  0  0  1  0  0
   -6.4581  -27.1797   52.7647 C   0  0  0  1  0  0
   -5.2071  -26.6303   52.4461 C   0  0  0  1  0  0
   -2.4187  -25.6256   52.7013 C   0  0  0  1  0  0
   -1.0532  -25.1416   52.1814 C   0  0  0  1  0  0
   -1.6763  -23.2369   46.3501 H   0  0
    0.0180  -22.7234   46.4617 H   0  0
   -1.1058  -22.3720   47.8066 H   0  0
   -1.3585  -24.8260   48.1533 H   0  0
    0.7660  -25.0943   46.0151 H   0  0
   -0.9284  -25.6078   45.9035 H   0  0
    0.1754  -26.4329   47.0418 H   0  0
    2.0154  -23.5703   47.2533 H   0  0
    3.8782  -23.2946   48.8687 H   0  0
    3.5364  -23.8655   51.2676 H   0  0
    1.3395  -24.7046   52.0453 H   0  0
   -3.2587  -25.4437   49.0514 H   0  0
   -5.6856  -25.6302   49.2480 H   0  0
   -7.8491  -24.4485   49.6113 H   0  0
   -5.8198  -20.9664   50.9152 H   0  0
   -3.6128  -22.0629   50.5602 H   0  0
   -0.1896  -27.0424   49.8941 H   0  0
   -1.7621  -26.6389   49.2594 H   0  0
   -1.0449  -28.0245   51.8249 H   0  0
   -2.3120  -28.4000   50.6611 H   0  0
   -3.3697  -29.5146   52.3127 H   0  0
   -5.5890  -30.4851   52.8866 H   0  0
   -7.9447  -27.7194   55.5869 H   0  0
   -9.2811  -30.7799   52.9386 H   0  0
   -8.2280  -30.0435   51.4413 H   0  0
   -8.9879  -27.9177   51.9530 H   0  0
  -10.0396  -28.6539   53.4511 H   0  0
   -7.3281  -26.5299   52.8594 H   0  0
   -5.1105  -25.5548   52.2973 H   0  0
   -2.3630  -25.7585   53.7817 H   0  0
   -3.1725  -24.8687   52.4845 H   0  0
   -0.8715  -24.1327   52.5517 H   0  0
   -0.2730  -25.7899   52.5803 H   0  0
  1  2  1  0
  2  3  1  0
  2  4  1  0
  4  5  2  0
  4  9  1  0
  5  6  1  0
  6  7  2  0
  7  8  1  0
  8  9  2  0
  9 10  1  0
 10 11  1  0
 10 20  1  0
 10 36  1  0
 11 12  2  0
 11 13  1  0
 13 14  1  0
 14 15  2  0
 14 19  1  0
 15 16  1  0
 16 17  2  0
 17 18  1  0
 18 19  2  0
 20 21  1  0
 21 22  1  0
 22 23  1  0
 22 35  1  0
 23 24  2  0
 23 34  1  0
 24 25  1  0
 25 26  2  0
 26 27  1  0
 26 33  1  0
 27 28  1  0
 27 31  1  0
 27 32  1  0
 28 29  2  0
 28 30  1  0
 31 32  1  0
 33 34  2  0
 35 36  1  0
  1 37  1  0
  1 38  1  0
  1 39  1  0
  2 40  1  0
  3 41  1  0
  3 42  1  0
  3 43  1  0
  5 44  1  0
  6 45  1  0
  7 46  1  0
  8 47  1  0
 13 48  1  0
 15 49  1  0
 16 50  1  0
 18 51  1  0
 19 52  1  0
 20 53  1  0
 20 54  1  0
 21 55  1  0
 21 56  1  0
 24 57  1  0
 25 58  1  0
 30 59  1  0
 31 60  1  0
 31 61  1  0
 32 62  1  0
 32 63  1  0
 33 64  1  0
 34 65  1  0
 35 66  1  0
 35 67  1  0
 36 68  1  0
 36 69  1  0
M  END
> <Name>
Molecule

> <AbsoluteEnergy>
70.8074

> <Clean Energy>
200.853

> <ConfNumber>
41

> <MOL_NUMBER>
4

> <RelativeEnergy>
9.28485

> <POSE_NUMBER>
68

> <LibDockScore>
117.3012

> <HotSpots>
0.27,-24.92,46.38,A,19,5
-6.13,-22.12,49.98,A,41,16
-9.53,-30.12,52.78,A,62,31

$$$$
Molecule
  SciTegic05072616053D

 69 73  0  0  0  0            999 V2000
    1.2748  -26.9165   47.7854 C   0  0  0  1  0  0
    0.4468  -25.6225   47.9081 C   0  0  0  1  0  0
    0.1698  -24.9915   46.5317 C   0  0  0  1  0  0
    1.0780  -24.6356   48.8632 C   0  0  0  1  0  0
    2.3510  -24.1349   48.5072 C   0  0  0  1  0  0
    3.0275  -23.2212   49.3238 C   0  0  0  1  0  0
    2.4387  -22.7896   50.5147 C   0  0  0  1  0  0
    1.1759  -23.2700   50.8851 C   0  0  0  1  0  0
    0.4616  -24.1933   50.0787 C   0  0  0  1  0  0
   -0.9235  -24.6819   50.5284 C   0  0  0  1  0  0
   -1.9389  -24.6389   49.3735 C   0  0  0  1  0  0
   -2.5846  -25.6318   49.1229 O   0  0  0  1  0  0
   -2.1051  -23.4737   48.6370 N   0  0  0  1  0  0
   -3.0328  -23.2259   47.6294 C   0  0  0  1  0  0
   -2.9348  -22.0225   46.8938 C   0  0  0  1  0  0
   -3.8544  -21.7452   45.8650 C   0  0  0  1  0  0
   -4.8532  -22.6168   45.5524 N   0  0  0  1  0  0
   -4.9747  -23.7799   46.2500 C   0  0  0  1  0  0
   -4.0883  -24.1091   47.2925 C   0  0  0  1  0  0
   -0.7938  -26.1236   51.1408 C   0  0  0  1  0  0
   -1.7020  -26.4393   52.3531 C   0  0  0  1  0  0
   -3.0293  -25.7553   52.2814 N   0  0  0  1  0  0
   -4.2383  -26.4405   52.4397 C   0  0  0  1  0  0
   -5.4729  -25.8190   52.1346 C   0  0  0  1  0  0
   -6.6865  -26.5117   52.2783 C   0  0  0  1  0  0
   -6.6931  -27.8409   52.7296 C   0  0  0  1  0  0
   -7.9984  -28.5880   52.8653 C   0  0  0  1  0  0
   -8.3791  -29.3329   51.5961 C   0  0  0  1  0  0
   -7.8233  -30.3750   51.3349 O   0  0  0  1  0  0
   -9.3145  -28.8163   50.8015 O   0  0  0  1  0  0
   -9.1168  -27.9815   53.6992 C   0  0  0  1  0  0
   -8.3815  -29.1987   54.2050 C   0  0  0  1  0  0
   -5.4787  -28.4692   53.0482 C   0  0  0  1  0  0
   -4.2651  -27.7748   52.9110 C   0  0  0  1  0  0
   -2.9807  -24.2810   52.0402 C   0  0  0  1  0  0
   -1.5679  -23.8004   51.6468 C   0  0  0  1  0  0
    2.2194  -26.6782   47.2964 H   0  0
    0.7237  -27.6227   47.1644 H   0  0
    1.4594  -27.3464   48.7699 H   0  0
   -0.5175  -25.9003   48.3336 H   0  0
   -0.3715  -25.7147   45.9218 H   0  0
    1.1241  -24.7702   46.0538 H   0  0
   -0.4162  -24.0789   46.6410 H   0  0
    2.8150  -24.4668   47.5784 H   0  0
    4.0092  -22.8482   49.0318 H   0  0
    2.9615  -22.0795   51.1554 H   0  0
    0.7301  -22.9251   51.8181 H   0  0
   -1.4399  -22.6693   48.8724 H   0  0
   -2.1449  -21.3075   47.1240 H   0  0
   -3.7654  -20.8133   45.3067 H   0  0
   -5.7772  -24.4721   45.9951 H   0  0
   -4.2137  -25.0430   47.8404 H   0  0
    0.2429  -26.2817   51.4380 H   0  0
   -1.0016  -26.8518   50.3569 H   0  0
   -1.1951  -26.1309   53.2674 H   0  0
   -1.8621  -27.5162   52.4057 H   0  0
   -5.4821  -24.7874   51.7828 H   0  0
   -7.6267  -26.0151   52.0384 H   0  0
   -8.9699  -27.8537   50.5624 H   0  0
  -10.0980  -28.2406   53.3015 H   0  0
   -8.7896  -27.0740   54.2066 H   0  0
   -7.6628  -28.9403   54.9826 H   0  0
   -8.9702  -30.1069   54.0762 H   0  0
   -5.4774  -29.4997   53.4034 H   0  0
   -3.3302  -28.2711   53.1714 H   0  0
   -3.2945  -23.7607   52.9452 H   0  0
   -3.6782  -24.0277   51.2418 H   0  0
   -1.6286  -22.7696   51.2978 H   0  0
   -0.9279  -23.8210   52.5289 H   0  0
  1  2  1  0
  2  3  1  0
  2  4  1  0
  4  5  2  0
  4  9  1  0
  5  6  1  0
  6  7  2  0
  7  8  1  0
  8  9  2  0
  9 10  1  0
 10 11  1  0
 10 20  1  0
 10 36  1  0
 11 12  2  0
 11 13  1  0
 13 14  1  0
 14 15  2  0
 14 19  1  0
 15 16  1  0
 16 17  2  0
 17 18  1  0
 18 19  2  0
 20 21  1  0
 21 22  1  0
 22 23  1  0
 22 35  1  0
 23 24  2  0
 23 34  1  0
 24 25  1  0
 25 26  2  0
 26 27  1  0
 26 33  1  0
 27 28  1  0
 27 31  1  0
 27 32  1  0
 28 29  2  0
 28 30  1  0
 31 32  1  0
 33 34  2  0
 35 36  1  0
  1 37  1  0
  1 38  1  0
  1 39  1  0
  2 40  1  0
  3 41  1  0
  3 42  1  0
  3 43  1  0
  5 44  1  0
  6 45  1  0
  7 46  1  0
  8 47  1  0
 13 48  1  0
 15 49  1  0
 16 50  1  0
 18 51  1  0
 19 52  1  0
 20 53  1  0
 20 54  1  0
 21 55  1  0
 21 56  1  0
 24 57  1  0
 25 58  1  0
 30 59  1  0
 31 60  1  0
 31 61  1  0
 32 62  1  0
 32 63  1  0
 33 64  1  0
 34 65  1  0
 35 66  1  0
 35 67  1  0
 36 68  1  0
 36 69  1  0
M  END
> <Name>
Molecule

> <AbsoluteEnergy>
62.8236

> <Clean Energy>
200.853

> <ConfNumber>
4

> <MOL_NUMBER>
4

> <RelativeEnergy>
1.3011

> <POSE_NUMBER>
69

> <LibDockScore>
116.63

> <HotSpots>
2.67,-22.92,49.98,A,39,7
-5.13,-22.92,46.19,A,18,18
-6.33,-26.32,51.98,A,57,25

$$$$
Molecule
  SciTegic05072616053D

 69 73  0  0  0  0            999 V2000
   -2.1448  -23.8108   46.4365 C   0  0  0  1  0  0
   -1.5098  -25.1331   46.9123 C   0  0  0  1  0  0
   -1.3454  -26.1196   45.7410 C   0  0  0  1  0  0
   -0.2042  -24.9043   47.6456 C   0  0  0  1  0  0
    0.8612  -24.3742   46.8791 C   0  0  0  1  0  0
    2.1079  -24.1104   47.4534 C   0  0  0  1  0  0
    2.3131  -24.3714   48.8098 C   0  0  0  1  0  0
    1.2737  -24.8993   49.5891 C   0  0  0  1  0  0
   -0.0071  -25.1861   49.0407 C   0  0  0  1  0  0
   -1.1265  -25.7676   49.9341 C   0  0  0  1  0  0
   -2.2381  -24.7031   50.0807 C   0  0  0  1  0  0
   -1.9352  -23.5282   50.0246 O   0  0  0  1  0  0
   -3.5645  -25.0602   50.2653 N   0  0  0  1  0  0
   -4.6716  -24.2234   50.2589 C   0  0  0  1  0  0
   -4.6461  -22.8922   49.7790 C   0  0  0  1  0  0
   -5.8203  -22.1149   49.8171 C   0  0  0  1  0  0
   -6.9924  -22.6199   50.2968 N   0  0  0  1  0  0
   -7.0396  -23.9048   50.7532 C   0  0  0  1  0  0
   -5.8979  -24.7268   50.7458 C   0  0  0  1  0  0
   -0.6396  -26.1412   51.3656 C   0  0  0  1  0  0
   -1.6771  -26.8139   52.2895 C   0  0  0  1  0  0
   -2.4795  -27.9196   51.6697 N   0  0  0  1  0  0
   -3.3122  -28.7368   52.4630 C   0  0  0  1  0  0
   -3.1781  -28.7946   53.8740 C   0  0  0  1  0  0
   -4.0355  -29.5867   54.6608 C   0  0  0  1  0  0
   -5.0582  -30.3498   54.0672 C   0  0  0  1  0  0
   -6.0142  -31.1761   54.9236 C   0  0  0  1  0  0
   -5.4756  -32.5054   55.4953 C   0  0  0  1  0  0
   -6.1478  -33.1134   56.3055 O   0  0  0  1  0  0
   -4.2884  -32.9949   55.1245 O   0  0  0  1  0  0
   -7.0189  -30.4194   55.7840 C   0  0  0  1  0  0
   -7.4892  -31.1307   54.5390 C   0  0  0  1  0  0
   -5.1912  -30.3215   52.6677 C   0  0  0  1  0  0
   -4.3341  -29.5296   51.8800 C   0  0  0  1  0  0
   -2.4356  -28.1075   50.1773 C   0  0  0  1  0  0
   -1.5275  -27.1597   49.3468 C   0  0  0  1  0  0
   -3.1209  -24.0256   46.0015 H   0  0
   -1.5046  -23.3673   45.6739 H   0  0
   -2.2549  -23.1232   47.2750 H   0  0
   -2.1937  -25.5851   47.6307 H   0  0
   -0.7099  -25.6625   44.9825 H   0  0
   -2.3262  -26.3208   45.3101 H   0  0
   -0.8959  -27.0486   46.0917 H   0  0
    0.7063  -24.1676   45.8201 H   0  0
    2.9158  -23.7030   46.8456 H   0  0
    3.2824  -24.1645   49.2634 H   0  0
    1.4525  -25.0957   50.6463 H   0  0
   -3.7568  -26.0995   50.4317 H   0  0
   -3.7227  -22.4706   49.3820 H   0  0
   -5.7912  -21.0872   49.4551 H   0  0
   -7.9813  -24.3027   51.1314 H   0  0
   -5.9597  -25.7504   51.1152 H   0  0
   -0.2789  -25.2367   51.8554 H   0  0
    0.2210  -26.8040   51.2753 H   0  0
   -2.3652  -26.0512   52.6542 H   0  0
   -1.1591  -27.2110   53.1625 H   0  0
   -2.3943  -28.2132   54.3594 H   0  0
   -3.9057  -29.6093   55.7428 H   0  0
   -3.6177  -32.2144   55.3331 H   0  0
   -6.9464  -29.3428   55.6296 H   0  0
   -7.2713  -30.9768   56.6860 H   0  0
   -7.9928  -32.0678   54.7765 H   0  0
   -7.6663  -30.4341   53.7196 H   0  0
   -5.9661  -30.9190   52.1875 H   0  0
   -4.4586  -29.5255   50.7971 H   0  0
   -2.1305  -29.1342   49.9749 H   0  0
   -3.4530  -28.0240   49.7952 H   0  0
   -2.0119  -26.9910   48.3850 H   0  0
   -0.6117  -27.7001   49.1073 H   0  0
  1  2  1  0
  2  3  1  0
  2  4  1  0
  4  5  2  0
  4  9  1  0
  5  6  1  0
  6  7  2  0
  7  8  1  0
  8  9  2  0
  9 10  1  0
 10 11  1  0
 10 20  1  0
 10 36  1  0
 11 12  2  0
 11 13  1  0
 13 14  1  0
 14 15  2  0
 14 19  1  0
 15 16  1  0
 16 17  2  0
 17 18  1  0
 18 19  2  0
 20 21  1  0
 21 22  1  0
 22 23  1  0
 22 35  1  0
 23 24  2  0
 23 34  1  0
 24 25  1  0
 25 26  2  0
 26 27  1  0
 26 33  1  0
 27 28  1  0
 27 31  1  0
 27 32  1  0
 28 29  2  0
 28 30  1  0
 31 32  1  0
 33 34  2  0
 35 36  1  0
  1 37  1  0
  1 38  1  0
  1 39  1  0
  2 40  1  0
  3 41  1  0
  3 42  1  0
  3 43  1  0
  5 44  1  0
  6 45  1  0
  7 46  1  0
  8 47  1  0
 13 48  1  0
 15 49  1  0
 16 50  1  0
 18 51  1  0
 19 52  1  0
 20 53  1  0
 20 54  1  0
 21 55  1  0
 21 56  1  0
 24 57  1  0
 25 58  1  0
 30 59  1  0
 31 60  1  0
 31 61  1  0
 32 62  1  0
 32 63  1  0
 33 64  1  0
 34 65  1  0
 35 66  1  0
 35 67  1  0
 36 68  1  0
 36 69  1  0
M  END
> <Name>
Molecule

> <AbsoluteEnergy>
70.0492

> <Clean Energy>
200.853

> <ConfNumber>
33

> <MOL_NUMBER>
4

> <RelativeEnergy>
8.52667

> <POSE_NUMBER>
70

> <LibDockScore>
116.5535

> <HotSpots>
0.27,-24.92,46.38,A,19,5
-5.93,-24.72,51.19,A,53,19
-6.53,-33.12,56.38,P,68,29

$$$$
Molecule
  SciTegic05072616053D

 69 73  0  0  0  0            999 V2000
    0.6593  -23.2794   48.4437 C   0  0  0  1  0  0
    0.6050  -24.7223   48.9831 C   0  0  0  1  0  0
    1.6538  -25.6176   48.2904 C   0  0  0  1  0  0
    0.7286  -24.7639   50.4896 C   0  0  0  1  0  0
    1.9520  -24.3189   51.0406 C   0  0  0  1  0  0
    2.1792  -24.3377   52.4207 C   0  0  0  1  0  0
    1.1815  -24.8050   53.2800 C   0  0  0  1  0  0
   -0.0424  -25.2417   52.7577 C   0  0  0  1  0  0
   -0.3103  -25.2243   51.3631 C   0  0  0  1  0  0
   -1.6742  -25.7027   50.8501 C   0  0  0  1  0  0
   -2.3479  -24.7145   49.8946 C   0  0  0  1  0  0
   -2.5449  -25.0547   48.7505 O   0  0  0  1  0  0
   -2.7576  -23.4654   50.3362 N   0  0  0  1  0  0
   -4.0274  -22.9545   50.1402 C   0  0  0  1  0  0
   -4.3440  -21.6196   50.4753 C   0  0  0  1  0  0
   -5.6603  -21.1494   50.2852 C   0  0  0  1  0  0
   -6.6393  -21.9584   49.7880 N   0  0  0  1  0  0
   -6.3483  -23.2504   49.4605 C   0  0  0  1  0  0
   -5.0548  -23.7730   49.6262 C   0  0  0  1  0  0
   -1.5090  -27.1387   50.2250 C   0  0  0  1  0  0
   -2.8267  -27.8890   49.8882 C   0  0  0  1  0  0
   -3.7377  -27.8248   51.0554 N   0  0  0  1  0  0
   -4.1132  -28.9089   51.8326 C   0  0  0  1  0  0
   -5.1908  -28.7874   52.7368 C   0  0  0  1  0  0
   -5.3386  -29.7130   53.7752 C   0  0  0  1  0  0
   -4.4227  -30.7694   53.8889 C   0  0  0  1  0  0
   -4.3243  -31.5310   55.1800 C   0  0  0  1  0  0
   -3.7653  -30.6197   56.2857 C   0  0  0  1  0  0
   -4.3246  -30.5933   57.3602 O   0  0  0  1  0  0
   -2.6806  -29.8444   56.0681 O   0  0  0  1  0  0
   -5.3864  -32.5676   55.5135 C   0  0  0  1  0  0
   -3.9787  -33.0115   55.1906 C   0  0  0  1  0  0
   -3.5484  -31.0606   52.8264 C   0  0  0  1  0  0
   -3.3903  -30.1236   51.7924 C   0  0  0  1  0  0
   -4.0749  -26.4409   51.4679 C   0  0  0  1  0  0
   -2.7615  -25.8179   51.9754 C   0  0  0  1  0  0
    0.4697  -23.2994   47.3705 H   0  0
    1.6565  -22.8766   48.6210 H   0  0
   -0.0868  -22.6609   48.9427 H   0  0
   -0.3773  -25.1273   48.7396 H   0  0
    2.6442  -25.1988   48.4687 H   0  0
    1.4574  -25.6216   47.2182 H   0  0
    1.6022  -26.6332   48.6828 H   0  0
    2.7348  -23.9534   50.3760 H   0  0
    3.1301  -23.9894   52.8239 H   0  0
    1.3555  -24.8297   54.3557 H   0  0
   -0.8105  -25.6050   53.4404 H   0  0
   -2.0479  -22.8602   50.8605 H   0  0
   -3.5771  -20.9577   50.8777 H   0  0
   -5.9001  -20.1174   50.5412 H   0  0
   -7.1356  -23.8904   49.0621 H   0  0
   -4.8456  -24.8086   49.3582 H   0  0
   -0.9176  -27.0539   49.3133 H   0  0
   -0.9289  -27.7529   50.9137 H   0  0
   -3.3039  -27.4185   49.0285 H   0  0
   -2.6046  -28.9309   49.6577 H   0  0
   -5.9069  -27.9731   52.6258 H   0  0
   -6.1569  -29.6144   54.4885 H   0  0
   -2.9395  -29.2722   55.2266 H   0  0
   -6.0623  -32.7324   54.6744 H   0  0
   -5.5845  -32.6063   56.5846 H   0  0
   -3.4281  -33.2877   56.0899 H   0  0
   -3.9054  -33.4121   54.1795 H   0  0
   -3.0000  -32.0024   52.8058 H   0  0
   -2.7140  -30.3315   50.9633 H   0  0
   -4.8105  -26.4599   52.2720 H   0  0
   -4.4456  -25.8772   50.6118 H   0  0
   -2.9707  -24.8245   52.3723 H   0  0
   -2.3694  -26.4300   52.7876 H   0  0
  1  2  1  0
  2  3  1  0
  2  4  1  0
  4  5  2  0
  4  9  1  0
  5  6  1  0
  6  7  2  0
  7  8  1  0
  8  9  2  0
  9 10  1  0
 10 11  1  0
 10 20  1  0
 10 36  1  0
 11 12  2  0
 11 13  1  0
 13 14  1  0
 14 15  2  0
 14 19  1  0
 15 16  1  0
 16 17  2  0
 17 18  1  0
 18 19  2  0
 20 21  1  0
 21 22  1  0
 22 23  1  0
 22 35  1  0
 23 24  2  0
 23 34  1  0
 24 25  1  0
 25 26  2  0
 26 27  1  0
 26 33  1  0
 27 28  1  0
 27 31  1  0
 27 32  1  0
 28 29  2  0
 28 30  1  0
 31 32  1  0
 33 34  2  0
 35 36  1  0
  1 37  1  0
  1 38  1  0
  1 39  1  0
  2 40  1  0
  3 41  1  0
  3 42  1  0
  3 43  1  0
  5 44  1  0
  6 45  1  0
  7 46  1  0
  8 47  1  0
 13 48  1  0
 15 49  1  0
 16 50  1  0
 18 51  1  0
 19 52  1  0
 20 53  1  0
 20 54  1  0
 21 55  1  0
 21 56  1  0
 24 57  1  0
 25 58  1  0
 30 59  1  0
 31 60  1  0
 31 61  1  0
 32 62  1  0
 32 63  1  0
 33 64  1  0
 34 65  1  0
 35 66  1  0
 35 67  1  0
 36 68  1  0
 36 69  1  0
M  END
> <Name>
Molecule

> <AbsoluteEnergy>
78.502

> <Clean Energy>
200.853

> <ConfNumber>
86

> <MOL_NUMBER>
4

> <RelativeEnergy>
16.9795

> <POSE_NUMBER>
71

> <LibDockScore>
116.2874

> <HotSpots>
0.87,-24.32,52.78,A,63,7
-5.53,-22.92,48.98,A,33,19
-4.13,-30.52,57.38,P,71,29

$$$$
Molecule
  SciTegic05072616053D

 69 73  0  0  0  0            999 V2000
   -3.6648  -29.8342   51.9417 C   0  0  0  1  0  0
   -3.3386  -28.3539   52.2162 C   0  0  0  1  0  0
   -2.1389  -28.2511   53.1849 C   0  0  0  1  0  0
   -3.1381  -27.6029   50.9159 C   0  0  0  1  0  0
   -2.0206  -27.9761   50.1311 C   0  0  0  1  0  0
   -1.8511  -27.4877   48.8318 C   0  0  0  1  0  0
   -2.8018  -26.6223   48.2893 C   0  0  0  1  0  0
   -3.8726  -26.1822   49.0772 C   0  0  0  1  0  0
   -4.0182  -26.5735   50.4352 C   0  0  0  1  0  0
   -5.1070  -25.8956   51.3046 C   0  0  0  1  0  0
   -6.0654  -26.9823   51.8173 C   0  0  0  1  0  0
   -5.9566  -28.1136   51.3922 O   0  0  0  1  0  0
   -7.0361  -26.7016   52.7703 N   0  0  0  1  0  0
   -7.6055  -27.6538   53.6034 C   0  0  0  1  0  0
   -8.7700  -27.3733   54.3541 C   0  0  0  1  0  0
   -9.3066  -28.3649   55.2010 C   0  0  0  1  0  0
   -8.7274  -29.5945   55.3184 N   0  0  0  1  0  0
   -7.6006  -29.8799   54.6068 C   0  0  0  1  0  0
   -7.0177  -28.9320   53.7498 C   0  0  0  1  0  0
   -4.4808  -25.1115   52.5395 C   0  0  0  1  0  0
   -4.0490  -23.6524   52.2595 C   0  0  0  1  0  0
   -3.7395  -23.5430   50.8229 N   0  0  0  1  0  0
   -2.4424  -23.6112   50.3269 C   0  0  0  1  0  0
   -1.4349  -24.0752   51.1965 C   0  0  0  1  0  0
   -0.1405  -24.3238   50.7371 C   0  0  0  1  0  0
    0.1890  -24.0791   49.3948 C   0  0  0  1  0  0
    1.5701  -24.4487   48.9045 C   0  0  0  1  0  0
    2.6625  -24.2813   49.9505 C   0  0  0  1  0  0
    2.7585  -25.1148   50.8237 O   0  0  0  1  0  0
    3.4886  -23.2370   49.8800 O   0  0  0  1  0  0
    1.9201  -24.3245   47.4289 C   0  0  0  1  0  0
    1.6745  -25.6874   48.0253 C   0  0  0  1  0  0
   -0.7774  -23.5135   48.5370 C   0  0  0  1  0  0
   -2.0927  -23.2854   48.9963 C   0  0  0  1  0  0
   -4.9640  -23.5995   49.9826 C   0  0  0  1  0  0
   -5.8787  -24.7673   50.5068 C   0  0  0  1  0  0
   -3.9127  -30.3294   52.8805 H   0  0
   -2.7960  -30.3188   51.4963 H   0  0
   -4.5112  -29.9032   51.2583 H   0  0
   -4.1813  -27.8718   52.7116 H   0  0
   -1.2715  -28.7372   52.7383 H   0  0
   -2.3883  -28.7478   54.1225 H   0  0
   -1.9108  -27.2027   53.3770 H   0  0
   -1.2782  -28.6570   50.5475 H   0  0
   -0.9804  -27.7816   48.2456 H   0  0
   -2.7112  -26.2898   47.2552 H   0  0
   -4.6167  -25.5195   48.6353 H   0  0
   -7.3652  -25.6882   52.8680 H   0  0
   -9.2497  -26.3974   54.2788 H   0  0
  -10.2059  -28.1436   55.7758 H   0  0
   -7.1424  -30.8640   54.7048 H   0  0
   -6.1119  -29.1815   53.1972 H   0  0
   -5.2067  -25.1067   53.3526 H   0  0
   -3.6137  -25.6647   52.9003 H   0  0
   -4.8633  -22.9735   52.5126 H   0  0
   -3.1619  -23.4121   52.8455 H   0  0
   -1.6709  -24.2430   52.2473 H   0  0
    0.6155  -24.7085   51.4217 H   0  0
    2.8592  -22.3965   49.8808 H   0  0
    2.9836  -24.1337   47.2848 H   0  0
    1.0670  -23.9812   46.8437 H   0  0
    0.6902  -26.0723   47.7586 H   0  0
    2.6067  -26.2242   48.2012 H   0  0
   -0.5072  -23.2512   47.5141 H   0  0
   -2.8382  -22.8584   48.3255 H   0  0
   -5.5018  -22.6542   50.0556 H   0  0
   -4.6886  -23.7899   48.9453 H   0  0
   -6.3855  -25.2233   49.6563 H   0  0
   -6.6494  -24.3450   51.1517 H   0  0
  1  2  1  0
  2  3  1  0
  2  4  1  0
  4  5  2  0
  4  9  1  0
  5  6  1  0
  6  7  2  0
  7  8  1  0
  8  9  2  0
  9 10  1  0
 10 11  1  0
 10 20  1  0
 10 36  1  0
 11 12  2  0
 11 13  1  0
 13 14  1  0
 14 15  2  0
 14 19  1  0
 15 16  1  0
 16 17  2  0
 17 18  1  0
 18 19  2  0
 20 21  1  0
 21 22  1  0
 22 23  1  0
 22 35  1  0
 23 24  2  0
 23 34  1  0
 24 25  1  0
 25 26  2  0
 26 27  1  0
 26 33  1  0
 27 28  1  0
 27 31  1  0
 27 32  1  0
 28 29  2  0
 28 30  1  0
 31 32  1  0
 33 34  2  0
 35 36  1  0
  1 37  1  0
  1 38  1  0
  1 39  1  0
  2 40  1  0
  3 41  1  0
  3 42  1  0
  3 43  1  0
  5 44  1  0
  6 45  1  0
  7 46  1  0
  8 47  1  0
 13 48  1  0
 15 49  1  0
 16 50  1  0
 18 51  1  0
 19 52  1  0
 20 53  1  0
 20 54  1  0
 21 55  1  0
 21 56  1  0
 24 57  1  0
 25 58  1  0
 30 59  1  0
 31 60  1  0
 31 61  1  0
 32 62  1  0
 32 63  1  0
 33 64  1  0
 34 65  1  0
 35 66  1  0
 35 67  1  0
 36 68  1  0
 36 69  1  0
M  END
> <Name>
Molecule

> <AbsoluteEnergy>
79.7131

> <Clean Energy>
200.853

> <ConfNumber>
95

> <MOL_NUMBER>
4

> <RelativeEnergy>
18.1906

> <POSE_NUMBER>
72

> <LibDockScore>
115.8817

> <HotSpots>
1.27,-23.52,47.59,A,27,31
-5.13,-23.32,51.38,A,54,35
-5.93,-24.72,51.19,A,53,36

$$$$
Molecule
  SciTegic05072616053D

 69 73  0  0  0  0            999 V2000
   -2.6139  -21.9236   47.4130 C   0  0  0  1  0  0
   -3.2530  -23.0127   48.2975 C   0  0  0  1  0  0
   -4.6624  -22.6005   48.7624 C   0  0  0  1  0  0
   -3.2631  -24.3651   47.6204 C   0  0  0  1  0  0
   -4.0454  -24.4816   46.4491 C   0  0  0  1  0  0
   -4.0892  -25.6742   45.7200 C   0  0  0  1  0  0
   -3.3380  -26.7722   46.1458 C   0  0  0  1  0  0
   -2.5625  -26.6818   47.3089 C   0  0  0  1  0  0
   -2.5297  -25.5019   48.0960 C   0  0  0  1  0  0
   -1.7227  -25.4746   49.4059 C   0  0  0  1  0  0
   -0.3047  -24.9231   49.1479 C   0  0  0  1  0  0
   -0.0021  -24.5557   48.0344 O   0  0  0  1  0  0
    0.6134  -24.8502   50.1868 N   0  0  0  1  0  0
    1.9135  -24.3474   50.1644 C   0  0  0  1  0  0
    2.7551  -24.6090   51.2712 C   0  0  0  1  0  0
    4.0750  -24.1238   51.2892 C   0  0  0  1  0  0
    4.5767  -23.3945   50.2542 N   0  0  0  1  0  0
    3.7873  -23.1230   49.1773 C   0  0  0  1  0  0
    2.4564  -23.5779   49.1061 C   0  0  0  1  0  0
   -1.5254  -26.8711   50.0712 C   0  0  0  1  0  0
   -2.7774  -27.5774   50.6553 C   0  0  0  1  0  0
   -3.9633  -26.7172   50.9990 N   0  0  0  1  0  0
   -5.1266  -27.3015   51.5210 C   0  0  0  1  0  0
   -6.2751  -26.5202   51.8017 C   0  0  0  1  0  0
   -7.4412  -27.1048   52.3220 C   0  0  0  1  0  0
   -7.4904  -28.4859   52.5727 C   0  0  0  1  0  0
   -8.7515  -29.1178   53.1214 C   0  0  0  1  0  0
   -9.6240  -29.7724   52.0493 C   0  0  0  1  0  0
  -10.4244  -30.6197   52.3771 O   0  0  0  1  0  0
   -9.4903  -29.3993   50.7749 O   0  0  0  1  0  0
   -8.6951  -29.7528   54.5033 C   0  0  0  1  0  0
   -9.4457  -28.4590   54.3038 C   0  0  0  1  0  0
   -6.3615  -29.2769   52.3038 C   0  0  0  1  0  0
   -5.1960  -28.6927   51.7823 C   0  0  0  1  0  0
   -3.9082  -25.2395   50.7588 C   0  0  0  1  0  0
   -2.4980  -24.6934   50.5057 C   0  0  0  1  0  0
   -2.5526  -20.9989   47.9868 H   0  0
   -3.2513  -21.7606   46.5440 H   0  0
   -1.6183  -22.2314   47.0934 H   0  0
   -2.6276  -23.1112   49.1848 H   0  0
   -5.2851  -22.4327   47.8836 H   0  0
   -4.5864  -21.6709   49.3265 H   0  0
   -5.0989  -23.3809   49.3858 H   0  0
   -4.6261  -23.6249   46.1072 H   0  0
   -4.7062  -25.7465   44.8243 H   0  0
   -3.3552  -27.6994   45.5730 H   0  0
   -1.9679  -27.5416   47.6177 H   0  0
    0.2789  -25.2302   51.1294 H   0  0
    2.3788  -25.1892   52.1137 H   0  0
    4.7098  -24.3359   52.1495 H   0  0
    4.1954  -22.5401   48.3516 H   0  0
    1.8441  -23.3379   48.2368 H   0  0
   -1.0713  -27.5370   49.3374 H   0  0
   -0.7904  -26.7684   50.8695 H   0  0
   -2.4789  -28.1178   51.5536 H   0  0
   -3.1040  -28.3375   49.9456 H   0  0
   -6.2530  -25.4473   51.6105 H   0  0
   -8.3120  -26.4839   52.5322 H   0  0
   -8.4752  -29.5526   50.5547 H   0  0
   -7.7288  -29.5881   54.9800 H   0  0
   -9.3723  -30.6035   54.5798 H   0  0
  -10.5235  -28.6194   54.2751 H   0  0
   -8.8797  -27.6041   54.6737 H   0  0
   -6.3902  -30.3486   52.5007 H   0  0
   -4.3293  -29.3203   51.5748 H   0  0
   -4.3322  -24.7274   51.6226 H   0  0
   -4.5358  -25.0008   49.9001 H   0  0
   -2.5732  -23.6467   50.2110 H   0  0
   -1.9313  -24.7360   51.4358 H   0  0
  1  2  1  0
  2  3  1  0
  2  4  1  0
  4  5  2  0
  4  9  1  0
  5  6  1  0
  6  7  2  0
  7  8  1  0
  8  9  2  0
  9 10  1  0
 10 11  1  0
 10 20  1  0
 10 36  1  0
 11 12  2  0
 11 13  1  0
 13 14  1  0
 14 15  2  0
 14 19  1  0
 15 16  1  0
 16 17  2  0
 17 18  1  0
 18 19  2  0
 20 21  1  0
 21 22  1  0
 22 23  1  0
 22 35  1  0
 23 24  2  0
 23 34  1  0
 24 25  1  0
 25 26  2  0
 26 27  1  0
 26 33  1  0
 27 28  1  0
 27 31  1  0
 27 32  1  0
 28 29  2  0
 28 30  1  0
 31 32  1  0
 33 34  2  0
 35 36  1  0
  1 37  1  0
  1 38  1  0
  1 39  1  0
  2 40  1  0
  3 41  1  0
  3 42  1  0
  3 43  1  0
  5 44  1  0
  6 45  1  0
  7 46  1  0
  8 47  1  0
 13 48  1  0
 15 49  1  0
 16 50  1  0
 18 51  1  0
 19 52  1  0
 20 53  1  0
 20 54  1  0
 21 55  1  0
 21 56  1  0
 24 57  1  0
 25 58  1  0
 30 59  1  0
 31 60  1  0
 31 61  1  0
 32 62  1  0
 32 63  1  0
 33 64  1  0
 34 65  1  0
 35 66  1  0
 35 67  1  0
 36 68  1  0
 36 69  1  0
M  END
> <Name>
Molecule

> <AbsoluteEnergy>
66.0873

> <Clean Energy>
200.853

> <ConfNumber>
13

> <MOL_NUMBER>
4

> <RelativeEnergy>
4.56476

> <POSE_NUMBER>
73

> <LibDockScore>
114.7519

> <HotSpots>
-0.93,-23.32,46.98,A,25,1
4.07,-23.72,49.78,A,37,18
-6.33,-26.32,51.98,A,57,24

$$$$
Molecule
  SciTegic05072616053D

 69 73  0  0  0  0            999 V2000
   -2.8946  -22.1031   47.6160 C   0  0  0  1  0  0
   -3.5247  -23.2806   48.3851 C   0  0  0  1  0  0
   -4.9137  -22.9022   48.9337 C   0  0  0  1  0  0
   -3.5642  -24.5386   47.5437 C   0  0  0  1  0  0
   -4.4447  -24.5389   46.4404 C   0  0  0  1  0  0
   -4.5205  -25.6328   45.5711 C   0  0  0  1  0  0
   -3.6982  -26.7406   45.7828 C   0  0  0  1  0  0
   -2.8256  -26.7661   46.8779 C   0  0  0  1  0  0
   -2.7662  -25.7004   47.8114 C   0  0  0  1  0  0
   -1.8807  -25.8154   49.0644 C   0  0  0  1  0  0
   -0.5740  -25.0175   48.9033 C   0  0  0  1  0  0
   -0.3418  -24.4230   47.8743 O   0  0  0  1  0  0
    0.3149  -24.9888   49.9676 N   0  0  0  1  0  0
    1.6081  -24.4836   50.0344 C   0  0  0  1  0  0
    2.2033  -23.6519   49.0557 C   0  0  0  1  0  0
    3.5198  -23.1855   49.2417 C   0  0  0  1  0  0
    4.2445  -23.5140   50.3477 N   0  0  0  1  0  0
    3.6936  -24.3156   51.2996 C   0  0  0  1  0  0
    2.3873  -24.8145   51.1665 C   0  0  0  1  0  0
   -2.7062  -25.2788   50.3034 C   0  0  0  1  0  0
   -2.8365  -26.2807   51.4546 C   0  0  0  1  0  0
   -3.3808  -27.5421   50.9018 N   0  0  0  1  0  0
   -4.6523  -27.9950   51.2120 C   0  0  0  1  0  0
   -4.9895  -29.3627   51.1098 C   0  0  0  1  0  0
   -6.2780  -29.8035   51.4576 C   0  0  0  1  0  0
   -7.2429  -28.8818   51.9038 C   0  0  0  1  0  0
   -8.6184  -29.3320   52.3395 C   0  0  0  1  0  0
   -8.9191  -28.9741   53.7980 C   0  0  0  1  0  0
   -8.8302  -27.8141   54.1400 O   0  0  0  1  0  0
   -9.2713  -29.9326   54.6607 O   0  0  0  1  0  0
   -9.7483  -29.2228   51.3268 C   0  0  0  1  0  0
   -9.2268  -30.5834   51.7235 C   0  0  0  1  0  0
   -6.9232  -27.5145   51.9691 C   0  0  0  1  0  0
   -5.6365  -27.0761   51.6350 C   0  0  0  1  0  0
   -2.5019  -28.2502   49.9398 C   0  0  0  1  0  0
   -1.4162  -27.2963   49.3724 C   0  0  0  1  0  0
   -2.8003  -21.2523   48.2908 H   0  0
   -3.5510  -21.8312   46.7894 H   0  0
   -1.9134  -22.3850   47.2341 H   0  0
   -2.8882  -23.4999   49.2423 H   0  0
   -5.5581  -22.6256   48.0993 H   0  0
   -4.8074  -22.0466   49.6007 H   0  0
   -5.3467  -23.7436   49.4747 H   0  0
   -5.0781  -23.6699   46.2621 H   0  0
   -5.2177  -25.6199   44.7334 H   0  0
   -3.7352  -27.5860   45.0957 H   0  0
   -2.1741  -27.6289   47.0165 H   0  0
   -0.0505  -25.4214   50.8755 H   0  0
    1.6454  -23.3734   48.1617 H   0  0
    3.9695  -22.5461   48.4821 H   0  0
    4.2775  -24.5756   52.1826 H   0  0
    1.9722  -25.4603   51.9403 H   0  0
   -2.2279  -24.3745   50.6796 H   0  0
   -3.7052  -25.0006   49.9678 H   0  0
   -1.8558  -26.4654   51.8931 H   0  0
   -3.5174  -25.8873   52.2094 H   0  0
   -4.2470  -30.0797   50.7596 H   0  0
   -6.5302  -30.8612   51.3815 H   0  0
   -8.4885  -30.6310   54.6161 H   0  0
   -9.3793  -28.9208   50.3466 H   0  0
  -10.6988  -28.9993   51.8113 H   0  0
   -9.8998  -31.0850   52.4189 H   0  0
   -8.5792  -31.0057   50.9552 H   0  0
   -7.6792  -26.7938   52.2807 H   0  0
   -5.3925  -26.0159   51.7021 H   0  0
   -2.0175  -29.0864   50.4440 H   0  0
   -3.1048  -28.6370   49.1183 H   0  0
   -1.0199  -27.7325   48.4555 H   0  0
   -0.5869  -27.2601   50.0788 H   0  0
  1  2  1  0
  2  3  1  0
  2  4  1  0
  4  5  2  0
  4  9  1  0
  5  6  1  0
  6  7  2  0
  7  8  1  0
  8  9  2  0
  9 10  1  0
 10 11  1  0
 10 20  1  0
 10 36  1  0
 11 12  2  0
 11 13  1  0
 13 14  1  0
 14 15  2  0
 14 19  1  0
 15 16  1  0
 16 17  2  0
 17 18  1  0
 18 19  2  0
 20 21  1  0
 21 22  1  0
 22 23  1  0
 22 35  1  0
 23 24  2  0
 23 34  1  0
 24 25  1  0
 25 26  2  0
 26 27  1  0
 26 33  1  0
 27 28  1  0
 27 31  1  0
 27 32  1  0
 28 29  2  0
 28 30  1  0
 31 32  1  0
 33 34  2  0
 35 36  1  0
  1 37  1  0
  1 38  1  0
  1 39  1  0
  2 40  1  0
  3 41  1  0
  3 42  1  0
  3 43  1  0
  5 44  1  0
  6 45  1  0
  7 46  1  0
  8 47  1  0
 13 48  1  0
 15 49  1  0
 16 50  1  0
 18 51  1  0
 19 52  1  0
 20 53  1  0
 20 54  1  0
 21 55  1  0
 21 56  1  0
 24 57  1  0
 25 58  1  0
 30 59  1  0
 31 60  1  0
 31 61  1  0
 32 62  1  0
 32 63  1  0
 33 64  1  0
 34 65  1  0
 35 66  1  0
 35 67  1  0
 36 68  1  0
 36 69  1  0
M  END
> <Name>
Molecule

> <AbsoluteEnergy>
69.5365

> <Clean Energy>
200.853

> <ConfNumber>
29

> <MOL_NUMBER>
4

> <RelativeEnergy>
8.01398

> <POSE_NUMBER>
74

> <LibDockScore>
114.4838

> <HotSpots>
-3.33,-21.92,50.38,A,47,3
4.07,-23.72,49.78,A,37,16
-9.33,-29.92,51.19,A,52,32

$$$$
Molecule
  SciTegic05072616053D

 69 73  0  0  0  0            999 V2000
   -2.8550  -24.4705   46.2975 C   0  0  0  1  0  0
   -2.0868  -25.7848   46.5284 C   0  0  0  1  0  0
   -1.9864  -26.6198   45.2378 C   0  0  0  1  0  0
   -0.7334  -25.5403   47.1592 C   0  0  0  1  0  0
    0.3060  -25.1199   46.2977 C   0  0  0  1  0  0
    1.5958  -24.8743   46.7830 C   0  0  0  1  0  0
    1.8697  -25.0443   48.1431 C   0  0  0  1  0  0
    0.8530  -25.4554   49.0155 C   0  0  0  1  0  0
   -0.4664  -25.7091   48.5565 C   0  0  0  1  0  0
   -1.5509  -26.1516   49.5484 C   0  0  0  1  0  0
   -2.5611  -25.0007   49.7480 C   0  0  0  1  0  0
   -2.1281  -23.8737   49.8336 O   0  0  0  1  0  0
   -3.9286  -25.2451   49.8300 N   0  0  0  1  0  0
   -4.9728  -24.3311   49.9593 C   0  0  0  1  0  0
   -4.8408  -22.9344   49.7661 C   0  0  0  1  0  0
   -5.9575  -22.0928   49.9449 C   0  0  0  1  0  0
   -7.1804  -22.5887   50.2895 N   0  0  0  1  0  0
   -7.3348  -23.9316   50.4688 C   0  0  0  1  0  0
   -6.2554  -24.8212   50.3083 C   0  0  0  1  0  0
   -1.0028  -26.4158   50.9894 C   0  0  0  1  0  0
   -2.0912  -26.8613   51.9891 C   0  0  0  1  0  0
   -2.9722  -27.9198   51.4116 N   0  0  0  1  0  0
   -4.1920  -28.2682   51.9880 C   0  0  0  1  0  0
   -4.9510  -27.3217   52.7144 C   0  0  0  1  0  0
   -6.1898  -27.6701   53.2752 C   0  0  0  1  0  0
   -6.6933  -28.9729   53.1231 C   0  0  0  1  0  0
   -8.0267  -29.3515   53.7247 C   0  0  0  1  0  0
   -7.9160  -29.7726   55.1817 C   0  0  0  1  0  0
   -8.5005  -29.1348   56.0300 O   0  0  0  1  0  0
   -7.1727  -30.8386   55.4863 O   0  0  0  1  0  0
   -9.0471  -30.0711   52.8591 C   0  0  0  1  0  0
   -9.2837  -28.6362   53.2539 C   0  0  0  1  0  0
   -5.9444  -29.9244   52.4127 C   0  0  0  1  0  0
   -4.7051  -29.5778   51.8526 C   0  0  0  1  0  0
   -2.4728  -28.5632   50.1623 C   0  0  0  1  0  0
   -2.1476  -27.5272   49.0558 C   0  0  0  1  0  0
   -3.8561  -24.7125   45.9406 H   0  0
   -2.3357  -23.8959   45.5305 H   0  0
   -2.9145  -23.8957   47.2217 H   0  0
   -2.6621  -26.3756   47.2412 H   0  0
   -1.4747  -26.0263   44.4802 H   0  0
   -2.9951  -26.8429   44.8902 H   0  0
   -1.4398  -27.5445   45.4230 H   0  0
    0.0991  -24.9846   45.2361 H   0  0
    2.3839  -24.5516   46.1026 H   0  0
    2.8734  -24.8572   48.5249 H   0  0
    1.0810  -25.5837   50.0736 H   0  0
   -4.2177  -26.2745   49.7881 H   0  0
   -3.8780  -22.5111   49.4798 H   0  0
   -5.8406  -21.0183   49.8041 H   0  0
   -8.3141  -24.3245   50.7420 H   0  0
   -6.4071  -25.8908   50.4531 H   0  0
   -0.5336  -25.5054   51.3625 H   0  0
   -0.2339  -27.1868   50.9392 H   0  0
   -1.6138  -27.2469   52.8899 H   0  0
   -2.7010  -26.0004   52.2632 H   0  0
   -4.5692  -26.3086   52.8405 H   0  0
   -6.7629  -26.9275   53.8304 H   0  0
   -6.2189  -30.6294   55.1004 H   0  0
   -9.6582  -30.7564   53.4466 H   0  0
   -8.7078  -30.1541   51.8266 H   0  0
   -9.0706  -27.9521   52.4325 H   0  0
  -10.0198  -28.5545   54.0536 H   0  0
   -6.3276  -30.9381   52.2955 H   0  0
   -4.1319  -30.3273   51.3070 H   0  0
   -3.2287  -29.2550   49.7908 H   0  0
   -1.5727  -29.1337   50.3914 H   0  0
   -1.4452  -27.9799   48.3560 H   0  0
   -3.0589  -27.3275   48.4921 H   0  0
  1  2  1  0
  2  3  1  0
  2  4  1  0
  4  5  2  0
  4  9  1  0
  5  6  1  0
  6  7  2  0
  7  8  1  0
  8  9  2  0
  9 10  1  0
 10 11  1  0
 10 20  1  0
 10 36  1  0
 11 12  2  0
 11 13  1  0
 13 14  1  0
 14 15  2  0
 14 19  1  0
 15 16  1  0
 16 17  2  0
 17 18  1  0
 18 19  2  0
 20 21  1  0
 21 22  1  0
 22 23  1  0
 22 35  1  0
 23 24  2  0
 23 34  1  0
 24 25  1  0
 25 26  2  0
 26 27  1  0
 26 33  1  0
 27 28  1  0
 27 31  1  0
 27 32  1  0
 28 29  2  0
 28 30  1  0
 31 32  1  0
 33 34  2  0
 35 36  1  0
  1 37  1  0
  1 38  1  0
  1 39  1  0
  2 40  1  0
  3 41  1  0
  3 42  1  0
  3 43  1  0
  5 44  1  0
  6 45  1  0
  7 46  1  0
  8 47  1  0
 13 48  1  0
 15 49  1  0
 16 50  1  0
 18 51  1  0
 19 52  1  0
 20 53  1  0
 20 54  1  0
 21 55  1  0
 21 56  1  0
 24 57  1  0
 25 58  1  0
 30 59  1  0
 31 60  1  0
 31 61  1  0
 32 62  1  0
 32 63  1  0
 33 64  1  0
 34 65  1  0
 35 66  1  0
 35 67  1  0
 36 68  1  0
 36 69  1  0
M  END
> <Name>
Molecule

> <AbsoluteEnergy>
65.7298

> <Clean Energy>
200.853

> <ConfNumber>
11

> <MOL_NUMBER>
4

> <RelativeEnergy>
4.20728

> <POSE_NUMBER>
75

> <LibDockScore>
114.3451

> <HotSpots>
0.27,-24.92,46.38,A,19,5
-6.13,-22.12,49.98,A,41,16
-7.33,-24.12,50.38,A,44,18

$$$$
Molecule
  SciTegic05072616053D

 69 73  0  0  0  0            999 V2000
   -3.3705  -30.1694   52.1813 C   0  0  0  1  0  0
   -3.3275  -28.6566   52.4687 C   0  0  0  1  0  0
   -2.2884  -28.3610   53.5737 C   0  0  0  1  0  0
   -3.0957  -27.8781   51.1900 C   0  0  0  1  0  0
   -1.9605  -28.2362   50.4238 C   0  0  0  1  0  0
   -1.7599  -27.7202   49.1397 C   0  0  0  1  0  0
   -2.6965  -26.8416   48.5938 C   0  0  0  1  0  0
   -3.7850  -26.4168   49.3657 C   0  0  0  1  0  0
   -3.9630  -26.8371   50.7112 C   0  0  0  1  0  0
   -5.0711  -26.1762   51.5692 C   0  0  0  1  0  0
   -5.9912  -27.2823   52.1098 C   0  0  0  1  0  0
   -5.8776  -28.4094   51.6751 O   0  0  0  1  0  0
   -6.9321  -27.0235   53.0983 N   0  0  0  1  0  0
   -7.4256  -27.9820   53.9715 C   0  0  0  1  0  0
   -8.6328  -27.7814   54.6790 C   0  0  0  1  0  0
   -9.0902  -28.7751   55.5690 C   0  0  0  1  0  0
   -8.3935  -29.9308   55.7692 N   0  0  0  1  0  0
   -7.2244  -30.1379   55.1001 C   0  0  0  1  0  0
   -6.7163  -29.1836   54.2035 C   0  0  0  1  0  0
   -4.4676  -25.3440   52.7837 C   0  0  0  1  0  0
   -4.0855  -23.8780   52.4693 C   0  0  0  1  0  0
   -3.7842  -23.7910   51.0293 N   0  0  0  1  0  0
   -2.4870  -23.8273   50.5301 C   0  0  0  1  0  0
   -1.5031  -24.4608   51.3157 C   0  0  0  1  0  0
   -0.2154  -24.6807   50.8237 C   0  0  0  1  0  0
    0.1319  -24.2377   49.5380 C   0  0  0  1  0  0
    1.5020  -24.5754   48.9963 C   0  0  0  1  0  0
    2.6318  -24.3525   49.9911 C   0  0  0  1  0  0
    2.7416  -25.1196   50.9216 O   0  0  0  1  0  0
    3.4743  -23.3341   49.8148 O   0  0  0  1  0  0
    1.7853  -24.4719   47.5050 C   0  0  0  1  0  0
    1.6080  -25.8287   48.1384 C   0  0  0  1  0  0
   -0.8074  -23.5074   48.7803 C   0  0  0  1  0  0
   -2.1166  -23.3069   49.2688 C   0  0  0  1  0  0
   -5.0087  -23.9072   50.1952 C   0  0  0  1  0  0
   -5.8824  -25.0925   50.7491 C   0  0  0  1  0  0
   -3.6467  -30.7021   53.0913 H   0  0
   -2.3861  -30.5026   51.8525 H   0  0
   -4.1042  -30.3744   51.4017 H   0  0
   -4.2920  -28.3218   52.8504 H   0  0
   -1.3051  -28.6959   53.2436 H   0  0
   -2.5656  -28.8954   54.4823 H   0  0
   -2.2605  -27.2900   53.7746 H   0  0
   -1.2290  -28.9272   50.8427 H   0  0
   -0.8761  -28.0030   48.5679 H   0  0
   -2.5812  -26.4870   47.5696 H   0  0
   -4.5177  -25.7435   48.9209 H   0  0
   -7.2991  -26.0228   53.1921 H   0  0
   -9.2061  -26.8652   54.5377 H   0  0
  -10.0230  -28.6159   56.1100 H   0  0
   -6.6723  -31.0633   55.2642 H   0  0
   -5.7750  -29.3691   53.6862 H   0  0
   -5.1908  -25.3450   53.5992 H   0  0
   -3.5814  -25.8598   53.1535 H   0  0
   -4.9212  -23.2210   52.7101 H   0  0
   -3.2051  -23.5952   53.0464 H   0  0
   -1.7523  -24.7850   52.3261 H   0  0
    0.5214  -25.1972   51.4389 H   0  0
    2.8610  -22.4829   49.7717 H   0  0
    2.8352  -24.2518   47.3117 H   0  0
    0.8979  -24.1673   46.9502 H   0  0
    0.6259  -26.2490   47.9218 H   0  0
    2.5632  -26.3329   48.2848 H   0  0
   -0.5209  -23.0957   47.8126 H   0  0
   -2.8415  -22.7512   48.6739 H   0  0
   -5.5774  -22.9789   50.2489 H   0  0
   -4.7303  -24.1118   49.1614 H   0  0
   -6.3764  -25.5842   49.9111 H   0  0
   -6.6647  -24.6815   51.3873 H   0  0
  1  2  1  0
  2  3  1  0
  2  4  1  0
  4  5  2  0
  4  9  1  0
  5  6  1  0
  6  7  2  0
  7  8  1  0
  8  9  2  0
  9 10  1  0
 10 11  1  0
 10 20  1  0
 10 36  1  0
 11 12  2  0
 11 13  1  0
 13 14  1  0
 14 15  2  0
 14 19  1  0
 15 16  1  0
 16 17  2  0
 17 18  1  0
 18 19  2  0
 20 21  1  0
 21 22  1  0
 22 23  1  0
 22 35  1  0
 23 24  2  0
 23 34  1  0
 24 25  1  0
 25 26  2  0
 26 27  1  0
 26 33  1  0
 27 28  1  0
 27 31  1  0
 27 32  1  0
 28 29  2  0
 28 30  1  0
 31 32  1  0
 33 34  2  0
 35 36  1  0
  1 37  1  0
  1 38  1  0
  1 39  1  0
  2 40  1  0
  3 41  1  0
  3 42  1  0
  3 43  1  0
  5 44  1  0
  6 45  1  0
  7 46  1  0
  8 47  1  0
 13 48  1  0
 15 49  1  0
 16 50  1  0
 18 51  1  0
 19 52  1  0
 20 53  1  0
 20 54  1  0
 21 55  1  0
 21 56  1  0
 24 57  1  0
 25 58  1  0
 30 59  1  0
 31 60  1  0
 31 61  1  0
 32 62  1  0
 32 63  1  0
 33 64  1  0
 34 65  1  0
 35 66  1  0
 35 67  1  0
 36 68  1  0
 36 69  1  0
M  END
> <Name>
Molecule

> <AbsoluteEnergy>
79.7131

> <Clean Energy>
200.853

> <ConfNumber>
95

> <MOL_NUMBER>
4

> <RelativeEnergy>
18.1906

> <POSE_NUMBER>
76

> <LibDockScore>
114.1414

> <HotSpots>
-8.73,-28.12,54.38,A,70,15
1.27,-23.52,47.59,A,27,31
-5.13,-23.32,51.38,A,54,35

$$$$
Molecule
  SciTegic05072616053D

 69 73  0  0  0  0            999 V2000
   -6.9315  -26.6083   52.0280 C   0  0  0  1  0  0
   -6.9672  -28.0425   52.5904 C   0  0  0  1  0  0
   -5.6940  -28.8231   52.2111 C   0  0  0  1  0  0
   -8.2214  -28.7802   52.1748 C   0  0  0  1  0  0
   -8.4608  -28.8901   50.7855 C   0  0  0  1  0  0
   -9.5890  -29.5531   50.2919 C   0  0  0  1  0  0
  -10.5025  -30.1202   51.1827 C   0  0  0  1  0  0
  -10.2847  -30.0256   52.5639 C   0  0  0  1  0  0
   -9.1519  -29.3587   53.0983 C   0  0  0  1  0  0
   -8.9583  -29.2844   54.6227 C   0  0  0  1  0  0
   -7.5650  -29.7734   55.0474 C   0  0  0  1  0  0
   -6.9289  -29.1081   55.8342 O   0  0  0  1  0  0
   -7.0401  -30.9516   54.5276 N   0  0  0  1  0  0
   -5.8198  -31.5286   54.8581 C   0  0  0  1  0  0
   -5.3161  -32.5928   54.0748 C   0  0  0  1  0  0
   -4.0774  -33.1794   54.4015 C   0  0  0  1  0  0
   -3.3432  -32.7423   55.4643 N   0  0  0  1  0  0
   -3.8153  -31.7234   56.2381 C   0  0  0  1  0  0
   -5.0489  -31.1038   55.9655 C   0  0  0  1  0  0
   -9.9615  -30.1604   55.4237 C   0  0  0  1  0  0
   -9.8172  -30.0612   56.9545 C   0  0  0  1  0  0
   -9.8262  -28.6581   57.4943 N   0  0  0  1  0  0
  -10.3037  -28.3531   58.7864 C   0  0  0  1  0  0
  -10.0997  -27.0679   59.3559 C   0  0  0  1  0  0
  -10.5787  -26.7468   60.6373 C   0  0  0  1  0  0
  -11.2784  -27.7011   61.3902 C   0  0  0  1  0  0
  -11.8019  -27.3606   62.7664 C   0  0  0  1  0  0
  -10.7989  -27.6631   63.8696 C   0  0  0  1  0  0
  -10.1027  -26.7719   64.2995 O   0  0  0  1  0  0
  -10.7090  -28.9076   64.3365 O   0  0  0  1  0  0
  -13.2794  -27.5773   63.0610 C   0  0  0  1  0  0
  -12.7382  -26.1735   62.9426 C   0  0  0  1  0  0
  -11.4857  -28.9826   60.8546 C   0  0  0  1  0  0
  -10.9977  -29.3060   59.5768 C   0  0  0  1  0  0
   -9.2468  -27.5830   56.6183 C   0  0  0  1  0  0
   -9.3066  -27.8461   55.0983 C   0  0  0  1  0  0
   -6.8454  -26.6601   50.9426 H   0  0
   -6.0569  -26.0966   52.4297 H   0  0
   -7.8383  -26.0707   52.3051 H   0  0
   -6.9925  -27.9647   53.6773 H   0  0
   -4.8280  -28.2960   52.6116 H   0  0
   -5.6166  -28.8595   51.1245 H   0  0
   -5.7354  -29.8342   52.6162 H   0  0
   -7.7516  -28.4491   50.0850 H   0  0
   -9.7544  -29.6268   49.2170 H   0  0
  -11.3847  -30.6363   50.8040 H   0  0
  -11.0051  -30.4766   53.2463 H   0  0
   -7.6348  -31.4648   53.8011 H   0  0
   -5.8850  -32.9585   53.2200 H   0  0
   -3.6981  -33.9996   53.7921 H   0  0
   -3.2235  -31.3812   57.0871 H   0  0
   -5.4095  -30.2988   56.6058 H   0  0
   -9.8328  -31.2015   55.1278 H   0  0
  -10.9759  -29.8712   55.1491 H   0  0
   -8.8855  -30.5426   57.2515 H   0  0
  -10.6299  -30.6188   57.4199 H   0  0
   -9.5588  -26.3129   58.7854 H   0  0
  -10.4058  -25.7520   61.0478 H   0  0
  -10.5063  -29.5018   63.4949 H   0  0
  -13.4426  -27.8593   64.1012 H   0  0
  -13.8255  -27.8751   62.1659 H   0  0
  -12.9963  -25.7221   61.9846 H   0  0
  -12.6119  -25.7070   63.9196 H   0  0
  -12.0280  -29.7306   61.4330 H   0  0
  -11.1557  -30.3105   59.1843 H   0  0
   -9.7674  -26.6487   56.8285 H   0  0
   -8.2056  -27.4292   56.9020 H   0  0
   -8.6324  -27.1474   54.6029 H   0  0
  -10.3089  -27.6002   54.7474 H   0  0
  1  2  1  0
  2  3  1  0
  2  4  1  0
  4  5  2  0
  4  9  1  0
  5  6  1  0
  6  7  2  0
  7  8  1  0
  8  9  2  0
  9 10  1  0
 10 11  1  0
 10 20  1  0
 10 36  1  0
 11 12  2  0
 11 13  1  0
 13 14  1  0
 14 15  2  0
 14 19  1  0
 15 16  1  0
 16 17  2  0
 17 18  1  0
 18 19  2  0
 20 21  1  0
 21 22  1  0
 22 23  1  0
 22 35  1  0
 23 24  2  0
 23 34  1  0
 24 25  1  0
 25 26  2  0
 26 27  1  0
 26 33  1  0
 27 28  1  0
 27 31  1  0
 27 32  1  0
 28 29  2  0
 28 30  1  0
 31 32  1  0
 33 34  2  0
 35 36  1  0
  1 37  1  0
  1 38  1  0
  1 39  1  0
  2 40  1  0
  3 41  1  0
  3 42  1  0
  3 43  1  0
  5 44  1  0
  6 45  1  0
  7 46  1  0
  8 47  1  0
 13 48  1  0
 15 49  1  0
 16 50  1  0
 18 51  1  0
 19 52  1  0
 20 53  1  0
 20 54  1  0
 21 55  1  0
 21 56  1  0
 24 57  1  0
 25 58  1  0
 30 59  1  0
 31 60  1  0
 31 61  1  0
 32 62  1  0
 32 63  1  0
 33 64  1  0
 34 65  1  0
 35 66  1  0
 35 67  1  0
 36 68  1  0
 36 69  1  0
M  END
> <Name>
Molecule

> <AbsoluteEnergy>
62.0602

> <Clean Energy>
200.853

> <ConfNumber>
2

> <MOL_NUMBER>
4

> <RelativeEnergy>
0.537637

> <POSE_NUMBER>
77

> <LibDockScore>
113.4331

> <HotSpots>
-3.93,-33.72,53.78,A,66,16
-3.33,-33.72,54.98,P,58,17
-8.73,-28.12,54.38,A,70,36

$$$$
Molecule
  SciTegic05072616053D

 69 73  0  0  0  0            999 V2000
   -6.9275  -26.5718   52.0702 C   0  0  0  1  0  0
   -6.9497  -28.0117   52.6184 C   0  0  0  1  0  0
   -5.6646  -28.7732   52.2403 C   0  0  0  1  0  0
   -8.1920  -28.7603   52.1869 C   0  0  0  1  0  0
   -8.4202  -28.8602   50.7950 C   0  0  0  1  0  0
   -9.5368  -29.5320   50.2872 C   0  0  0  1  0  0
  -10.4498  -30.1181   51.1661 C   0  0  0  1  0  0
  -10.2430  -30.0337   52.5497 C   0  0  0  1  0  0
   -9.1221  -29.3585   53.0983 C   0  0  0  1  0  0
   -8.9402  -29.2960   54.6247 C   0  0  0  1  0  0
   -7.5519  -29.7926   55.0567 C   0  0  0  1  0  0
   -6.9076  -29.1203   55.8308 O   0  0  0  1  0  0
   -7.0406  -30.9856   54.5576 N   0  0  0  1  0  0
   -5.8159  -31.5580   54.8795 C   0  0  0  1  0  0
   -5.2867  -32.5813   54.0592 C   0  0  0  1  0  0
   -4.0434  -33.1629   54.3771 C   0  0  0  1  0  0
   -3.3288  -32.7599   55.4665 N   0  0  0  1  0  0
   -3.8256  -31.7811   56.2758 C   0  0  0  1  0  0
   -5.0650  -31.1686   56.0133 C   0  0  0  1  0  0
   -9.9525  -30.1745   55.4113 C   0  0  0  1  0  0
   -9.8199  -30.0871   56.9439 C   0  0  0  1  0  0
   -9.8287  -28.6880   57.4940 N   0  0  0  1  0  0
  -10.3155  -28.3909   58.7845 C   0  0  0  1  0  0
  -10.1217  -27.1071   59.3605 C   0  0  0  1  0  0
  -10.6100  -26.7939   60.6403 C   0  0  0  1  0  0
  -11.3089  -27.7551   61.3852 C   0  0  0  1  0  0
  -11.8422  -27.4232   62.7597 C   0  0  0  1  0  0
  -10.8538  -27.7488   63.8695 C   0  0  0  1  0  0
  -10.1184  -26.8816   64.2826 O   0  0  0  1  0  0
  -10.8199  -28.9868   64.3605 O   0  0  0  1  0  0
  -13.3250  -27.6260   63.0373 C   0  0  0  1  0  0
  -12.7667  -26.2273   62.9393 C   0  0  0  1  0  0
  -11.5061  -29.0354   60.8431 C   0  0  0  1  0  0
  -11.0088  -29.3509   59.5669 C   0  0  0  1  0  0
   -9.2391  -27.6084   56.6305 C   0  0  0  1  0  0
   -9.2878  -27.8601   55.1082 C   0  0  0  1  0  0
   -6.8335  -26.6119   50.9850 H   0  0
   -6.0619  -26.0536   52.4829 H   0  0
   -7.8426  -26.0478   52.3462 H   0  0
   -6.9834  -27.9449   53.7058 H   0  0
   -4.8078  -28.2397   52.6518 H   0  0
   -5.5794  -28.7980   51.1539 H   0  0
   -5.6966  -29.7886   52.6353 H   0  0
   -7.7114  -28.4043   50.1037 H   0  0
   -9.6935  -29.5977   49.2105 H   0  0
  -11.3231  -30.6411   50.7763 H   0  0
  -10.9629  -30.4995   53.2227 H   0  0
   -7.6507  -31.5154   53.8561 H   0  0
   -5.8396  -32.9194   53.1828 H   0  0
   -3.6444  -33.9514   53.7390 H   0  0
   -3.2495  -31.4660   57.1458 H   0  0
   -5.4454  -30.3962   56.6818 H   0  0
   -9.8249  -31.2139   55.1087 H   0  0
  -10.9638  -29.8799   55.1309 H   0  0
   -8.8920  -30.5737   57.2446 H   0  0
  -10.6380  -30.6455   57.3988 H   0  0
   -9.5814  -26.3469   58.7964 H   0  0
  -10.4450  -25.7998   61.0559 H   0  0
  -10.6440  -29.6058   63.5308 H   0  0
  -13.5019  -27.9171   64.0727 H   0  0
  -13.8654  -27.9080   62.1337 H   0  0
  -13.0100  -25.7629   61.9837 H   0  0
  -12.6449  -25.7726   63.9224 H   0  0
  -12.0478  -29.7887   61.4152 H   0  0
  -11.1589  -30.3547   59.1694 H   0  0
   -9.7584  -26.6740   56.8435 H   0  0
   -8.1997  -27.4600   56.9234 H   0  0
   -8.6076  -27.1599   54.6232 H   0  0
  -10.2865  -27.6084   54.7513 H   0  0
  1  2  1  0
  2  3  1  0
  2  4  1  0
  4  5  2  0
  4  9  1  0
  5  6  1  0
  6  7  2  0
  7  8  1  0
  8  9  2  0
  9 10  1  0
 10 11  1  0
 10 20  1  0
 10 36  1  0
 11 12  2  0
 11 13  1  0
 13 14  1  0
 14 15  2  0
 14 19  1  0
 15 16  1  0
 16 17  2  0
 17 18  1  0
 18 19  2  0
 20 21  1  0
 21 22  1  0
 22 23  1  0
 22 35  1  0
 23 24  2  0
 23 34  1  0
 24 25  1  0
 25 26  2  0
 26 27  1  0
 26 33  1  0
 27 28  1  0
 27 31  1  0
 27 32  1  0
 28 29  2  0
 28 30  1  0
 31 32  1  0
 33 34  2  0
 35 36  1  0
  1 37  1  0
  1 38  1  0
  1 39  1  0
  2 40  1  0
  3 41  1  0
  3 42  1  0
  3 43  1  0
  5 44  1  0
  6 45  1  0
  7 46  1  0
  8 47  1  0
 13 48  1  0
 15 49  1  0
 16 50  1  0
 18 51  1  0
 19 52  1  0
 20 53  1  0
 20 54  1  0
 21 55  1  0
 21 56  1  0
 24 57  1  0
 25 58  1  0
 30 59  1  0
 31 60  1  0
 31 61  1  0
 32 62  1  0
 32 63  1  0
 33 64  1  0
 34 65  1  0
 35 66  1  0
 35 67  1  0
 36 68  1  0
 36 69  1  0
M  END
> <Name>
Molecule

> <AbsoluteEnergy>
62.0602

> <Clean Energy>
200.853

> <ConfNumber>
2

> <MOL_NUMBER>
4

> <RelativeEnergy>
0.537637

> <POSE_NUMBER>
78

> <LibDockScore>
113.1311

> <HotSpots>
-6.33,-26.32,51.98,A,57,1
-9.33,-29.92,51.19,A,52,8
-8.73,-28.12,54.38,A,70,36

$$$$
Molecule
  SciTegic05072616053D

 69 73  0  0  0  0            999 V2000
   -1.6611  -21.1185   48.1045 C   0  0  0  1  0  0
   -1.5157  -22.5915   47.6750 C   0  0  0  1  0  0
   -0.4167  -22.7586   46.6106 C   0  0  0  1  0  0
   -2.8269  -23.1972   47.2267 C   0  0  0  1  0  0
   -3.4430  -22.6053   46.1001 C   0  0  0  1  0  0
   -4.6781  -23.0567   45.6233 C   0  0  0  1  0  0
   -5.3210  -24.1160   46.2674 C   0  0  0  1  0  0
   -4.7193  -24.7328   47.3707 C   0  0  0  1  0  0
   -3.4566  -24.3133   47.8728 C   0  0  0  1  0  0
   -2.8243  -25.0449   49.0709 C   0  0  0  1  0  0
   -1.2920  -25.0499   48.9385 C   0  0  0  1  0  0
   -0.8249  -25.3862   47.8731 O   0  0  0  1  0  0
   -0.4657  -24.7089   49.9954 N   0  0  0  1  0  0
    0.9023  -24.4703   49.9651 C   0  0  0  1  0  0
    1.5910  -24.3686   51.1945 C   0  0  0  1  0  0
    2.9806  -24.1550   51.2089 C   0  0  0  1  0  0
    3.6906  -24.0326   50.0515 N   0  0  0  1  0  0
    3.0459  -24.1128   48.8525 C   0  0  0  1  0  0
    1.6556  -24.3247   48.7765 C   0  0  0  1  0  0
   -3.1269  -26.5892   49.0798 C   0  0  0  1  0  0
   -2.7344  -27.2809   50.3961 C   0  0  0  1  0  0
   -3.5889  -26.6676   51.4377 N   0  0  0  1  0  0
   -4.6988  -27.3147   51.9647 C   0  0  0  1  0  0
   -4.7222  -28.7205   52.1011 C   0  0  0  1  0  0
   -5.9180  -29.3829   52.4155 C   0  0  0  1  0  0
   -7.0959  -28.6414   52.6175 C   0  0  0  1  0  0
   -8.4256  -29.3401   52.7465 C   0  0  0  1  0  0
   -8.8144  -30.0645   51.4521 C   0  0  0  1  0  0
   -9.7034  -29.6195   50.7561 O   0  0  0  1  0  0
   -8.1651  -31.1754   51.1121 O   0  0  0  1  0  0
   -8.8243  -29.9454   54.0846 C   0  0  0  1  0  0
   -9.5243  -28.7026   53.5843 C   0  0  0  1  0  0
   -7.0405  -27.2385   52.6532 C   0  0  0  1  0  0
   -5.8479  -26.5770   52.3273 C   0  0  0  1  0  0
   -3.2412  -25.2554   51.7034 C   0  0  0  1  0  0
   -3.4282  -24.4321   50.3989 C   0  0  0  1  0  0
   -1.9097  -20.5217   47.2269 H   0  0
   -0.7079  -20.7766   48.5078 H   0  0
   -2.4427  -21.0188   48.8577 H   0  0
   -1.2073  -23.1486   48.5597 H   0  0
    0.5274  -22.4047   47.0248 H   0  0
   -0.6744  -22.1498   45.7439 H   0  0
   -0.3277  -23.8051   46.3189 H   0  0
   -2.9448  -21.7795   45.5922 H   0  0
   -5.1361  -22.5845   44.7542 H   0  0
   -6.2911  -24.4625   45.9111 H   0  0
   -5.2342  -25.5597   47.8598 H   0  0
   -0.9379  -24.6181   50.9513 H   0  0
    1.0442  -24.4559   52.1334 H   0  0
    3.5006  -24.0859   52.1644 H   0  0
    3.6199  -24.0105   47.9316 H   0  0
    1.1621  -24.3763   47.8060 H   0  0
   -2.5865  -27.0613   48.2593 H   0  0
   -4.1920  -26.7420   48.9056 H   0  0
   -1.6839  -27.0922   50.6175 H   0  0
   -2.9375  -28.3497   50.3293 H   0  0
   -3.8058  -29.2938   51.9612 H   0  0
   -5.9343  -30.4693   52.5030 H   0  0
   -8.2801  -31.8201   51.9328 H   0  0
   -8.0971  -29.7116   54.8621 H   0  0
   -9.4408  -30.8346   53.9530 H   0  0
  -10.5135  -28.9307   53.1874 H   0  0
   -9.1689  -27.8077   54.0952 H   0  0
   -7.9236  -26.6646   52.9339 H   0  0
   -5.8071  -25.4881   52.3538 H   0  0
   -3.8948  -24.8590   52.4804 H   0  0
   -2.2031  -25.1896   52.0290 H   0  0
   -2.9911  -23.4454   50.5519 H   0  0
   -4.4952  -24.2680   50.2487 H   0  0
  1  2  1  0
  2  3  1  0
  2  4  1  0
  4  5  2  0
  4  9  1  0
  5  6  1  0
  6  7  2  0
  7  8  1  0
  8  9  2  0
  9 10  1  0
 10 11  1  0
 10 20  1  0
 10 36  1  0
 11 12  2  0
 11 13  1  0
 13 14  1  0
 14 15  2  0
 14 19  1  0
 15 16  1  0
 16 17  2  0
 17 18  1  0
 18 19  2  0
 20 21  1  0
 21 22  1  0
 22 23  1  0
 22 35  1  0
 23 24  2  0
 23 34  1  0
 24 25  1  0
 25 26  2  0
 26 27  1  0
 26 33  1  0
 27 28  1  0
 27 31  1  0
 27 32  1  0
 28 29  2  0
 28 30  1  0
 31 32  1  0
 33 34  2  0
 35 36  1  0
  1 37  1  0
  1 38  1  0
  1 39  1  0
  2 40  1  0
  3 41  1  0
  3 42  1  0
  3 43  1  0
  5 44  1  0
  6 45  1  0
  7 46  1  0
  8 47  1  0
 13 48  1  0
 15 49  1  0
 16 50  1  0
 18 51  1  0
 19 52  1  0
 20 53  1  0
 20 54  1  0
 21 55  1  0
 21 56  1  0
 24 57  1  0
 25 58  1  0
 30 59  1  0
 31 60  1  0
 31 61  1  0
 32 62  1  0
 32 63  1  0
 33 64  1  0
 34 65  1  0
 35 66  1  0
 35 67  1  0
 36 68  1  0
 36 69  1  0
M  END
> <Name>
Molecule

> <AbsoluteEnergy>
73.8912

> <Clean Energy>
200.853

> <ConfNumber>
58

> <MOL_NUMBER>
4

> <RelativeEnergy>
12.3687

> <POSE_NUMBER>
79

> <LibDockScore>
112.4111

> <HotSpots>
-4.53,-24.52,46.19,A,17,7
3.07,-24.52,50.38,A,43,18
-9.53,-30.12,52.78,A,62,32

$$$$
Molecule
  SciTegic05072616053D

 69 73  0  0  0  0            999 V2000
    1.9654  -25.2251   52.7822 C   0  0  0  1  0  0
    0.4400  -24.9878   52.6840 C   0  0  0  1  0  0
    0.0665  -23.6197   53.2854 C   0  0  0  1  0  0
   -0.1206  -25.1431   51.2864 C   0  0  0  1  0  0
    0.4905  -24.3459   50.2855 C   0  0  0  1  0  0
    0.1040  -24.4172   48.9436 C   0  0  0  1  0  0
   -0.9197  -25.2848   48.5656 C   0  0  0  1  0  0
   -1.5582  -26.0623   49.5350 C   0  0  0  1  0  0
   -1.2068  -26.0088   50.9096 C   0  0  0  1  0  0
   -2.0841  -26.9002   51.8056 C   0  0  0  1  0  0
   -3.5524  -26.5148   51.5293 C   0  0  0  1  0  0
   -4.3022  -27.3348   51.0487 O   0  0  0  1  0  0
   -4.0023  -25.2391   51.8384 N   0  0  0  1  0  0
   -5.1098  -24.5814   51.3118 C   0  0  0  1  0  0
   -5.1292  -23.1681   51.3038 C   0  0  0  1  0  0
   -6.2435  -22.4814   50.7856 C   0  0  0  1  0  0
   -7.3201  -23.1498   50.2851 N   0  0  0  1  0  0
   -7.3262  -24.5124   50.2844 C   0  0  0  1  0  0
   -6.2428  -25.2521   50.7928 C   0  0  0  1  0  0
   -1.9058  -26.8730   53.3629 C   0  0  0  1  0  0
   -2.9878  -27.7047   54.1083 C   0  0  0  1  0  0
   -3.3993  -28.8839   53.2822 N   0  0  0  1  0  0
   -4.7270  -29.3032   53.1354 C   0  0  0  1  0  0
   -5.0658  -30.3947   52.2978 C   0  0  0  1  0  0
   -6.4050  -30.7008   52.0167 C   0  0  0  1  0  0
   -7.4362  -29.9254   52.5693 C   0  0  0  1  0  0
   -8.8678  -30.1631   52.1498 C   0  0  0  1  0  0
   -9.3156  -29.2231   51.0190 C   0  0  0  1  0  0
   -8.8256  -28.1191   50.9309 O   0  0  0  1  0  0
  -10.2356  -29.6197   50.1376 O   0  0  0  1  0  0
   -9.4034  -31.5862   52.1664 C   0  0  0  1  0  0
   -9.8690  -30.5983   53.2108 C   0  0  0  1  0  0
   -7.1231  -28.9117   53.4899 C   0  0  0  1  0  0
   -5.7834  -28.6194   53.7856 C   0  0  0  1  0  0
   -2.2570  -29.4390   52.5070 C   0  0  0  1  0  0
   -1.8258  -28.4117   51.4258 C   0  0  0  1  0  0
    2.2635  -25.1948   53.8302 H   0  0
    2.4841  -24.4352   52.2391 H   0  0
    2.2197  -26.1949   52.3544 H   0  0
   -0.0270  -25.7786   53.2711 H   0  0
    0.5924  -22.8358   52.7404 H   0  0
    0.3718  -23.5955   54.3315 H   0  0
   -1.0095  -23.4617   53.2117 H   0  0
    1.2854  -23.6568   50.5708 H   0  0
    0.6006  -23.7976   48.1969 H   0  0
   -1.2201  -25.3561   47.5202 H   0  0
   -2.3568  -26.7358   49.2241 H   0  0
   -3.4322  -24.6991   52.5652 H   0  0
   -4.2808  -22.6095   51.6991 H   0  0
   -6.2450  -21.3914   50.7848 H   0  0
   -8.1898  -25.0411   49.8809 H   0  0
   -6.2761  -26.3416   50.7870 H   0  0
   -1.9527  -25.8404   53.7087 H   0  0
   -0.9210  -27.2666   53.6145 H   0  0
   -2.5841  -28.0537   55.0587 H   0  0
   -3.8586  -27.0777   54.2999 H   0  0
   -4.2734  -31.0057   51.8654 H   0  0
   -6.6457  -31.5427   51.3676 H   0  0
  -11.0610  -29.8938   50.7259 H   0  0
   -8.6715  -32.2847   52.5719 H   0  0
  -10.1565  -31.7389   51.3934 H   0  0
  -10.8698  -30.2252   52.9934 H   0  0
   -9.3835  -30.7700   54.1715 H   0  0
   -7.9223  -28.3514   53.9752 H   0  0
   -5.5518  -27.8546   54.5269 H   0  0
   -2.5603  -30.3682   52.0246 H   0  0
   -1.4206  -29.6321   53.1788 H   0  0
   -0.7633  -28.5457   51.2226 H   0  0
   -2.3574  -28.6357   50.5010 H   0  0
  1  2  1  0
  2  3  1  0
  2  4  1  0
  4  5  2  0
  4  9  1  0
  5  6  1  0
  6  7  2  0
  7  8  1  0
  8  9  2  0
  9 10  1  0
 10 11  1  0
 10 20  1  0
 10 36  1  0
 11 12  2  0
 11 13  1  0
 13 14  1  0
 14 15  2  0
 14 19  1  0
 15 16  1  0
 16 17  2  0
 17 18  1  0
 18 19  2  0
 20 21  1  0
 21 22  1  0
 22 23  1  0
 22 35  1  0
 23 24  2  0
 23 34  1  0
 24 25  1  0
 25 26  2  0
 26 27  1  0
 26 33  1  0
 27 28  1  0
 27 31  1  0
 27 32  1  0
 28 29  2  0
 28 30  1  0
 31 32  1  0
 33 34  2  0
 35 36  1  0
  1 37  1  0
  1 38  1  0
  1 39  1  0
  2 40  1  0
  3 41  1  0
  3 42  1  0
  3 43  1  0
  5 44  1  0
  6 45  1  0
  7 46  1  0
  8 47  1  0
 13 48  1  0
 15 49  1  0
 16 50  1  0
 18 51  1  0
 19 52  1  0
 20 53  1  0
 20 54  1  0
 21 55  1  0
 21 56  1  0
 24 57  1  0
 25 58  1  0
 30 59  1  0
 31 60  1  0
 31 61  1  0
 32 62  1  0
 32 63  1  0
 33 64  1  0
 34 65  1  0
 35 66  1  0
 35 67  1  0
 36 68  1  0
 36 69  1  0
M  END
> <Name>
Molecule

> <AbsoluteEnergy>
77.0537

> <Clean Energy>
200.853

> <ConfNumber>
77

> <MOL_NUMBER>
4

> <RelativeEnergy>
15.5312

> <POSE_NUMBER>
80

> <LibDockScore>
112.0421

> <HotSpots>
2.27,-24.92,52.19,A,58,1
-5.13,-23.32,51.38,A,54,15
-9.53,-30.12,52.78,A,62,32

$$$$
Molecule
  SciTegic05072616053D

 69 73  0  0  0  0            999 V2000
    0.5361  -23.3559   50.1170 C   0  0  0  1  0  0
    0.7216  -24.8288   49.6861 C   0  0  0  1  0  0
    2.2095  -25.1066   49.3975 C   0  0  0  1  0  0
   -0.1419  -25.2786   48.5265 C   0  0  0  1  0  0
    0.2544  -24.8759   47.2260 C   0  0  0  1  0  0
   -0.4563  -25.2622   46.0838 C   0  0  0  1  0  0
   -1.5814  -26.0752   46.2090 C   0  0  0  1  0  0
   -1.9941  -26.4888   47.4767 C   0  0  0  1  0  0
   -1.3152  -26.0980   48.6625 C   0  0  0  1  0  0
   -1.9496  -26.6528   49.9496 C   0  0  0  1  0  0
   -3.3610  -26.0406   50.0928 C   0  0  0  1  0  0
   -4.3111  -26.7638   50.2854 O   0  0  0  1  0  0
   -3.5150  -24.6641   49.9838 N   0  0  0  1  0  0
   -4.6733  -23.9014   50.1053 C   0  0  0  1  0  0
   -4.6274  -22.5368   49.7371 C   0  0  0  1  0  0
   -5.7784  -21.7347   49.8414 C   0  0  0  1  0  0
   -6.9577  -22.2415   50.2979 N   0  0  0  1  0  0
   -7.0267  -23.5519   50.6658 C   0  0  0  1  0  0
   -5.9069  -24.4031   50.5858 C   0  0  0  1  0  0
   -1.2857  -26.3962   51.3487 C   0  0  0  1  0  0
   -2.0996  -27.0096   52.5271 C   0  0  0  1  0  0
   -2.7522  -28.2887   52.1102 N   0  0  0  1  0  0
   -4.0185  -28.7062   52.5087 C   0  0  0  1  0  0
   -4.9650  -27.7776   52.9967 C   0  0  0  1  0  0
   -6.2994  -28.1605   53.1923 C   0  0  0  1  0  0
   -6.7028  -29.4781   52.9180 C   0  0  0  1  0  0
   -8.1648  -29.8451   52.9437 C   0  0  0  1  0  0
   -8.6248  -30.3681   51.5821 C   0  0  0  1  0  0
   -8.2973  -31.4797   51.2345 O   0  0  0  1  0  0
   -9.3681  -29.5918   50.7858 O   0  0  0  1  0  0
   -9.1443  -29.0288   53.7730 C   0  0  0  1  0  0
   -8.7661  -30.4228   54.2148 C   0  0  0  1  0  0
   -5.7393  -30.4453   52.5833 C   0  0  0  1  0  0
   -4.4042  -30.0617   52.3847 C   0  0  0  1  0  0
   -1.9803  -29.0324   51.0881 C   0  0  0  1  0  0
   -1.9864  -28.2184   49.7761 C   0  0  0  1  0  0
    0.8795  -22.6997   49.3173 H   0  0
    1.1219  -23.1662   51.0164 H   0  0
   -0.5172  -23.1627   50.3204 H   0  0
    0.3766  -25.4246   50.5311 H   0  0
    2.7938  -24.9153   50.2975 H   0  0
    2.5514  -24.4488   48.5984 H   0  0
    2.3369  -26.1457   49.0940 H   0  0
    1.1378  -24.2475   47.1126 H   0  0
   -0.1307  -24.9280   45.0987 H   0  0
   -2.1352  -26.3859   45.3231 H   0  0
   -2.8683  -27.1345   47.5601 H   0  0
   -2.6202  -24.1146   49.7782 H   0  0
   -3.6962  -22.1046   49.3709 H   0  0
   -5.7255  -20.6855   49.5508 H   0  0
   -7.9726  -23.9517   51.0313 H   0  0
   -5.9901  -25.4456   50.8932 H   0  0
   -1.1908  -25.3218   51.5059 H   0  0
   -0.2835  -26.8247   51.3499 H   0  0
   -1.4301  -27.2041   53.3650 H   0  0
   -2.8658  -26.3021   52.8441 H   0  0
   -4.6558  -26.7571   53.2225 H   0  0
   -7.0255  -27.4344   53.5580 H   0  0
   -8.8002  -28.7174   50.6616 H   0  0
  -10.1337  -29.0064   53.3163 H   0  0
   -8.6321  -28.2676   54.3614 H   0  0
   -8.0535  -30.4037   55.0394 H   0  0
   -9.5540  -31.1426   53.9930 H   0  0
   -6.0286  -31.4909   52.4783 H   0  0
   -3.6576  -30.8148   52.1326 H   0  0
   -2.4417  -30.0048   50.9158 H   0  0
   -0.9539  -29.1653   51.4300 H   0  0
   -1.1292  -28.5233   49.1758 H   0  0
   -2.8775  -28.4847   49.2076 H   0  0
  1  2  1  0
  2  3  1  0
  2  4  1  0
  4  5  2  0
  4  9  1  0
  5  6  1  0
  6  7  2  0
  7  8  1  0
  8  9  2  0
  9 10  1  0
 10 11  1  0
 10 20  1  0
 10 36  1  0
 11 12  2  0
 11 13  1  0
 13 14  1  0
 14 15  2  0
 14 19  1  0
 15 16  1  0
 16 17  2  0
 17 18  1  0
 18 19  2  0
 20 21  1  0
 21 22  1  0
 22 23  1  0
 22 35  1  0
 23 24  2  0
 23 34  1  0
 24 25  1  0
 25 26  2  0
 26 27  1  0
 26 33  1  0
 27 28  1  0
 27 31  1  0
 27 32  1  0
 28 29  2  0
 28 30  1  0
 31 32  1  0
 33 34  2  0
 35 36  1  0
  1 37  1  0
  1 38  1  0
  1 39  1  0
  2 40  1  0
  3 41  1  0
  3 42  1  0
  3 43  1  0
  5 44  1  0
  6 45  1  0
  7 46  1  0
  8 47  1  0
 13 48  1  0
 15 49  1  0
 16 50  1  0
 18 51  1  0
 19 52  1  0
 20 53  1  0
 20 54  1  0
 21 55  1  0
 21 56  1  0
 24 57  1  0
 25 58  1  0
 30 59  1  0
 31 60  1  0
 31 61  1  0
 32 62  1  0
 32 63  1  0
 33 64  1  0
 34 65  1  0
 35 66  1  0
 35 67  1  0
 36 68  1  0
 36 69  1  0
M  END
> <Name>
Molecule

> <AbsoluteEnergy>
77.5479

> <Clean Energy>
200.853

> <ConfNumber>
83

> <MOL_NUMBER>
4

> <RelativeEnergy>
16.0254

> <POSE_NUMBER>
81

> <LibDockScore>
111.2852

> <HotSpots>
2.67,-23.92,48.98,A,32,1
-6.53,-23.32,50.38,A,45,18
-8.73,-28.12,54.38,A,70,31

$$$$
Molecule
  SciTegic05072616053D

 69 73  0  0  0  0            999 V2000
   -4.3509  -25.4688   45.4984 C   0  0  0  1  0  0
   -3.1751  -25.5542   46.4882 C   0  0  0  1  0  0
   -1.9192  -26.1482   45.8057 C   0  0  0  1  0  0
   -2.9347  -24.2210   47.1673 C   0  0  0  1  0  0
   -2.4915  -23.1803   46.3102 C   0  0  0  1  0  0
   -2.1758  -21.9063   46.7897 C   0  0  0  1  0  0
   -2.3141  -21.6291   48.1473 C   0  0  0  1  0  0
   -2.7866  -22.6219   49.0116 C   0  0  0  1  0  0
   -3.1253  -23.9291   48.5681 C   0  0  0  1  0  0
   -3.6711  -24.8413   49.6912 C   0  0  0  1  0  0
   -2.7845  -24.7185   50.9439 C   0  0  0  1  0  0
   -3.2676  -24.3163   51.9783 O   0  0  0  1  0  0
   -1.4392  -25.0621   50.8722 N   0  0  0  1  0  0
   -0.4432  -24.6919   51.7662 C   0  0  0  1  0  0
   -0.7013  -23.9381   52.9353 C   0  0  0  1  0  0
    0.3609  -23.5793   53.7855 C   0  0  0  1  0  0
    1.6434  -23.9577   53.5213 N   0  0  0  1  0  0
    1.9122  -24.7006   52.4110 C   0  0  0  1  0  0
    0.8930  -25.0846   51.5195 C   0  0  0  1  0  0
   -5.1473  -24.4059   49.9408 C   0  0  0  1  0  0
   -5.9144  -25.1095   51.0783 C   0  0  0  1  0  0
   -5.5690  -26.5453   51.3147 N   0  0  0  1  0  0
   -6.3202  -27.2956   52.2219 C   0  0  0  1  0  0
   -7.6071  -26.8820   52.6486 C   0  0  0  1  0  0
   -8.3282  -27.6343   53.5952 C   0  0  0  1  0  0
   -7.7843  -28.8173   54.1257 C   0  0  0  1  0  0
   -8.5513  -29.6210   55.1573 C   0  0  0  1  0  0
   -8.7820  -28.8719   56.4688 C   0  0  0  1  0  0
   -7.9326  -28.1104   56.8732 O   0  0  0  1  0  0
   -9.9149  -29.0744   57.1458 O   0  0  0  1  0  0
   -9.6189  -30.5908   54.6707 C   0  0  0  1  0  0
   -8.3308  -31.1247   55.2471 C   0  0  0  1  0  0
   -6.5159  -29.2469   53.6958 C   0  0  0  1  0  0
   -5.7946  -28.4971   52.7517 C   0  0  0  1  0  0
   -4.3790  -27.1574   50.6385 C   0  0  0  1  0  0
   -3.8044  -26.3635   49.4404 C   0  0  0  1  0  0
   -4.5754  -26.4700   45.1306 H   0  0
   -4.0596  -24.8376   44.6589 H   0  0
   -5.2277  -25.0493   45.9916 H   0  0
   -3.4344  -26.2479   47.2880 H   0  0
   -1.6417  -25.5131   44.9644 H   0  0
   -2.1574  -27.1456   45.4362 H   0  0
   -1.0953  -26.2028   46.5173 H   0  0
   -2.3942  -23.3813   45.2433 H   0  0
   -1.8235  -21.1344   46.1054 H   0  0
   -2.0555  -20.6435   48.5343 H   0  0
   -2.8998  -22.3833   50.0691 H   0  0
   -1.1416  -25.6728   50.0456 H   0  0
   -1.7204  -23.6361   53.1768 H   0  0
    0.1534  -22.9853   54.6756 H   0  0
    2.9394  -25.0042   52.2088 H   0  0
    1.1329  -25.6833   50.6408 H   0  0
   -5.1591  -23.3334   50.1351 H   0  0
   -5.7070  -24.5459   49.0160 H   0  0
   -5.7445  -24.5584   52.0032 H   0  0
   -6.9823  -25.0430   50.8701 H   0  0
   -8.0434  -25.9710   52.2391 H   0  0
   -9.3133  -27.2979   53.9185 H   0  0
   -9.9491  -30.1104   57.3134 H   0  0
   -9.6317  -30.6585   53.5829 H   0  0
  -10.4412  -30.6690   55.3819 H   0  0
   -8.4659  -31.4885   56.2657 H   0  0
   -7.6558  -31.4764   54.4669 H   0  0
   -6.0902  -30.1665   54.0973 H   0  0
   -4.8158  -28.8463   52.4228 H   0  0
   -4.6513  -28.1552   50.2944 H   0  0
   -3.5897  -27.2871   51.3790 H   0  0
   -2.8226  -26.7665   49.1921 H   0  0
   -4.4477  -26.5215   48.5747 H   0  0
  1  2  1  0
  2  3  1  0
  2  4  1  0
  4  5  2  0
  4  9  1  0
  5  6  1  0
  6  7  2  0
  7  8  1  0
  8  9  2  0
  9 10  1  0
 10 11  1  0
 10 20  1  0
 10 36  1  0
 11 12  2  0
 11 13  1  0
 13 14  1  0
 14 15  2  0
 14 19  1  0
 15 16  1  0
 16 17  2  0
 17 18  1  0
 18 19  2  0
 20 21  1  0
 21 22  1  0
 22 23  1  0
 22 35  1  0
 23 24  2  0
 23 34  1  0
 24 25  1  0
 25 26  2  0
 26 27  1  0
 26 33  1  0
 27 28  1  0
 27 31  1  0
 27 32  1  0
 28 29  2  0
 28 30  1  0
 31 32  1  0
 33 34  2  0
 35 36  1  0
  1 37  1  0
  1 38  1  0
  1 39  1  0
  2 40  1  0
  3 41  1  0
  3 42  1  0
  3 43  1  0
  5 44  1  0
  6 45  1  0
  7 46  1  0
  8 47  1  0
 13 48  1  0
 15 49  1  0
 16 50  1  0
 18 51  1  0
 19 52  1  0
 20 53  1  0
 20 54  1  0
 21 55  1  0
 21 56  1  0
 24 57  1  0
 25 58  1  0
 30 59  1  0
 31 60  1  0
 31 61  1  0
 32 62  1  0
 32 63  1  0
 33 64  1  0
 34 65  1  0
 35 66  1  0
 35 67  1  0
 36 68  1  0
 36 69  1  0
M  END
> <Name>
Molecule

> <AbsoluteEnergy>
74.2058

> <Clean Energy>
200.853

> <ConfNumber>
59

> <MOL_NUMBER>
4

> <RelativeEnergy>
12.6833

> <POSE_NUMBER>
82

> <LibDockScore>
110.1382

> <HotSpots>
-1.73,-21.72,46.78,A,24,6
-0.33,-25.52,53.19,A,64,15
-7.73,-27.92,56.98,P,70,29

$$$$
Molecule
  SciTegic05072616053D

 69 73  0  0  0  0            999 V2000
    2.5061  -25.1196   49.0912 C   0  0  0  1  0  0
    1.8739  -23.7813   49.5257 C   0  0  0  1  0  0
    2.9896  -22.7400   49.7741 C   0  0  0  1  0  0
    0.7897  -23.3601   48.5536 C   0  0  0  1  0  0
    1.1742  -22.4969   47.4963 C   0  0  0  1  0  0
    0.2668  -22.0650   46.5255 C   0  0  0  1  0  0
   -1.0573  -22.4975   46.5763 C   0  0  0  1  0  0
   -1.4658  -23.3516   47.6045 C   0  0  0  1  0  0
   -0.5825  -23.7931   48.6261 C   0  0  0  1  0  0
   -1.2413  -24.7160   49.6728 C   0  0  0  1  0  0
   -2.4813  -23.9863   50.2446 C   0  0  0  1  0  0
   -2.3020  -22.9076   50.7667 O   0  0  0  1  0  0
   -3.7582  -24.5303   50.1800 N   0  0  0  1  0  0
   -4.9773  -23.8571   50.2120 C   0  0  0  1  0  0
   -6.1684  -24.6184   50.2606 C   0  0  0  1  0  0
   -7.4175  -23.9758   50.3184 C   0  0  0  1  0  0
   -7.5165  -22.6172   50.3195 N   0  0  0  1  0  0
   -6.3859  -21.8601   50.2566 C   0  0  0  1  0  0
   -5.1069  -22.4470   50.1982 C   0  0  0  1  0  0
   -0.4491  -25.0784   50.9642 C   0  0  0  1  0  0
   -1.2419  -25.9877   51.9321 C   0  0  0  1  0  0
   -1.9200  -27.1146   51.2190 N   0  0  0  1  0  0
   -2.9235  -27.8815   51.8123 C   0  0  0  1  0  0
   -3.6156  -28.8672   51.0687 C   0  0  0  1  0  0
   -4.6776  -29.5875   51.6400 C   0  0  0  1  0  0
   -5.0611  -29.3442   52.9706 C   0  0  0  1  0  0
   -6.2462  -30.0682   53.5741 C   0  0  0  1  0  0
   -7.5782  -29.3399   53.3410 C   0  0  0  1  0  0
   -7.5802  -28.1320   53.2484 O   0  0  0  1  0  0
   -8.7190  -30.0306   53.2473 O   0  0  0  1  0  0
   -6.0559  -30.7977   54.8948 C   0  0  0  1  0  0
   -6.2073  -31.5914   53.6191 C   0  0  0  1  0  0
   -4.3479  -28.4069   53.7356 C   0  0  0  1  0  0
   -3.2878  -27.6871   53.1648 C   0  0  0  1  0  0
   -1.4724  -27.3521   49.8152 C   0  0  0  1  0  0
   -1.5389  -26.0748   48.9426 C   0  0  0  1  0  0
    3.1705  -25.4804   49.8764 H   0  0
    3.0756  -24.9724   48.1735 H   0  0
    1.7199  -25.8540   48.9160 H   0  0
    1.3540  -23.8859   50.4780 H   0  0
    3.5594  -22.5910   48.8569 H   0  0
    3.6544  -23.0990   50.5598 H   0  0
    2.5433  -21.7942   50.0812 H   0  0
    2.2093  -22.1600   47.4392 H   0  0
    0.5930  -21.3928   45.7319 H   0  0
   -1.7699  -22.1716   45.8187 H   0  0
   -2.5012  -23.6919   47.6233 H   0  0
   -3.8116  -25.5956   50.0954 H   0  0
   -6.1177  -25.7072   50.2532 H   0  0
   -8.3255  -24.5771   50.3633 H   0  0
   -6.4731  -20.7736   50.2513 H   0  0
   -4.2189  -21.8173   50.1425 H   0  0
   -0.1796  -24.1594   51.4848 H   0  0
    0.4748  -25.5835   50.6825 H   0  0
   -0.5594  -26.3976   52.6766 H   0  0
   -1.9934  -25.3910   52.4492 H   0  0
   -3.3206  -29.0700   50.0392 H   0  0
   -5.2057  -30.3369   51.0503 H   0  0
   -8.7631  -30.5851   54.1379 H   0  0
   -6.9729  -30.8047   55.4840 H   0  0
   -5.0179  -30.7616   55.2254 H   0  0
   -5.2498  -31.9771   53.2691 H   0  0
   -7.2058  -32.0187   53.5270 H   0  0
   -4.6194  -28.2380   54.7777 H   0  0
   -2.7375  -26.9683   53.7719 H   0  0
   -2.1014  -28.1212   49.3668 H   0  0
   -0.4466  -27.7204   49.8277 H   0  0
   -0.8358  -26.1857   48.1171 H   0  0
   -2.5307  -26.0160   48.4942 H   0  0
  1  2  1  0
  2  3  1  0
  2  4  1  0
  4  5  2  0
  4  9  1  0
  5  6  1  0
  6  7  2  0
  7  8  1  0
  8  9  2  0
  9 10  1  0
 10 11  1  0
 10 20  1  0
 10 36  1  0
 11 12  2  0
 11 13  1  0
 13 14  1  0
 14 15  2  0
 14 19  1  0
 15 16  1  0
 16 17  2  0
 17 18  1  0
 18 19  2  0
 20 21  1  0
 21 22  1  0
 22 23  1  0
 22 35  1  0
 23 24  2  0
 23 34  1  0
 24 25  1  0
 25 26  2  0
 26 27  1  0
 26 33  1  0
 27 28  1  0
 27 31  1  0
 27 32  1  0
 28 29  2  0
 28 30  1  0
 31 32  1  0
 33 34  2  0
 35 36  1  0
  1 37  1  0
  1 38  1  0
  1 39  1  0
  2 40  1  0
  3 41  1  0
  3 42  1  0
  3 43  1  0
  5 44  1  0
  6 45  1  0
  7 46  1  0
  8 47  1  0
 13 48  1  0
 15 49  1  0
 16 50  1  0
 18 51  1  0
 19 52  1  0
 20 53  1  0
 20 54  1  0
 21 55  1  0
 21 56  1  0
 24 57  1  0
 25 58  1  0
 30 59  1  0
 31 60  1  0
 31 61  1  0
 32 62  1  0
 32 63  1  0
 33 64  1  0
 34 65  1  0
 35 66  1  0
 35 67  1  0
 36 68  1  0
 36 69  1  0
M  END
> <Name>
Molecule

> <AbsoluteEnergy>
77.3853

> <Clean Energy>
200.853

> <ConfNumber>
81

> <MOL_NUMBER>
4

> <RelativeEnergy>
15.8627

> <POSE_NUMBER>
83

> <LibDockScore>
109.7877

> <HotSpots>
1.27,-23.52,47.59,A,27,5
-0.93,-23.32,46.98,A,25,7
-5.13,-23.32,51.38,A,54,19

$$$$
Molecule
  SciTegic05072616053D

 69 73  0  0  0  0            999 V2000
   -1.9765  -24.4396   48.7154 C   0  0  0  1  0  0
   -1.2370  -25.6013   49.4058 C   0  0  0  1  0  0
   -0.3394  -26.3729   48.4200 C   0  0  0  1  0  0
   -0.4683  -25.1303   50.6179 C   0  0  0  1  0  0
    0.6324  -24.2790   50.3703 C   0  0  0  1  0  0
    1.4140  -23.7781   51.4158 C   0  0  0  1  0  0
    1.1075  -24.1229   52.7348 C   0  0  0  1  0  0
    0.0217  -24.9661   53.0029 C   0  0  0  1  0  0
   -0.7928  -25.4923   51.9673 C   0  0  0  1  0  0
   -1.9739  -26.4096   52.3221 C   0  0  0  1  0  0
   -3.2616  -25.9454   51.6197 C   0  0  0  1  0  0
   -3.9479  -26.7655   51.0543 O   0  0  0  1  0  0
   -3.6208  -24.6040   51.6173 N   0  0  0  1  0  0
   -4.7962  -24.0672   51.1014 C   0  0  0  1  0  0
   -4.8614  -22.6815   50.8328 C   0  0  0  1  0  0
   -6.0331  -22.1250   50.2858 C   0  0  0  1  0  0
   -7.1248  -22.8961   50.0165 N   0  0  0  1  0  0
   -7.0925  -24.2318   50.2855 C   0  0  0  1  0  0
   -5.9466  -24.8439   50.8265 C   0  0  0  1  0  0
   -2.3126  -26.4283   53.8566 C   0  0  0  1  0  0
   -3.4991  -27.3466   54.2452 C   0  0  0  1  0  0
   -3.5365  -28.5548   53.3830 N   0  0  0  1  0  0
   -4.7339  -29.1634   53.0404 C   0  0  0  1  0  0
   -5.9761  -28.5615   53.3447 C   0  0  0  1  0  0
   -7.1734  -29.1336   52.8791 C   0  0  0  1  0  0
   -7.1408  -30.3155   52.1145 C   0  0  0  1  0  0
   -8.4047  -30.8870   51.5203 C   0  0  0  1  0  0
   -9.5661  -29.9035   51.6199 C   0  0  0  1  0  0
  -10.2026  -29.8423   52.6456 O   0  0  0  1  0  0
   -9.8587  -29.1170   50.5815 O   0  0  0  1  0  0
   -8.6712  -32.3823   51.6140 C   0  0  0  1  0  0
   -8.3147  -31.7674   50.2826 C   0  0  0  1  0  0
   -5.9134  -30.9585   51.8831 C   0  0  0  1  0  0
   -4.7199  -30.3923   52.3497 C   0  0  0  1  0  0
   -2.2244  -28.9909   52.8452 C   0  0  0  1  0  0
   -1.6079  -27.8962   51.9434 C   0  0  0  1  0  0
   -2.5863  -24.8481   47.9095 H   0  0
   -1.2359  -23.7627   48.2895 H   0  0
   -2.6049  -23.9080   49.4300 H   0  0
   -1.9942  -26.3009   49.7596 H   0  0
    0.3863  -25.6784   47.9968 H   0  0
   -0.9641  -26.7638   47.6168 H   0  0
    0.1736  -27.1891   48.9286 H   0  0
    0.8769  -24.0074   49.3434 H   0  0
    2.2581  -23.1220   51.2031 H   0  0
    1.7129  -23.7360   53.5544 H   0  0
   -0.2041  -25.2255   54.0372 H   0  0
   -2.9267  -23.9169   52.0544 H   0  0
   -4.0045  -22.0435   51.0491 H   0  0
   -6.0683  -21.0565   50.0734 H   0  0
   -7.9733  -24.8391   50.0771 H   0  0
   -5.9452  -25.9141   51.0333 H   0  0
   -2.5384  -25.4118   54.1789 H   0  0
   -1.4281  -26.7496   54.4066 H   0  0
   -3.3927  -27.6516   55.2862 H   0  0
   -4.4334  -26.7966   54.1329 H   0  0
   -6.0061  -27.6505   53.9425 H   0  0
   -8.1282  -28.6614   53.1105 H   0  0
  -10.0159  -29.7783   49.7812 H   0  0
   -9.7378  -32.5947   51.6864 H   0  0
   -7.8253  -32.9120   52.0522 H   0  0
   -7.2789  -31.9700   50.0103 H   0  0
   -9.1913  -31.6512   49.6453 H   0  0
   -5.8895  -31.9022   51.3381 H   0  0
   -3.7738  -30.9055   52.1775 H   0  0
   -2.3582  -29.9027   52.2632 H   0  0
   -1.5469  -29.1980   53.6736 H   0  0
   -0.5234  -28.0035   51.9627 H   0  0
   -1.9200  -28.0795   50.9153 H   0  0
  1  2  1  0
  2  3  1  0
  2  4  1  0
  4  5  2  0
  4  9  1  0
  5  6  1  0
  6  7  2  0
  7  8  1  0
  8  9  2  0
  9 10  1  0
 10 11  1  0
 10 20  1  0
 10 36  1  0
 11 12  2  0
 11 13  1  0
 13 14  1  0
 14 15  2  0
 14 19  1  0
 15 16  1  0
 16 17  2  0
 17 18  1  0
 18 19  2  0
 20 21  1  0
 21 22  1  0
 22 23  1  0
 22 35  1  0
 23 24  2  0
 23 34  1  0
 24 25  1  0
 25 26  2  0
 26 27  1  0
 26 33  1  0
 27 28  1  0
 27 31  1  0
 27 32  1  0
 28 29  2  0
 28 30  1  0
 31 32  1  0
 33 34  2  0
 35 36  1  0
  1 37  1  0
  1 38  1  0
  1 39  1  0
  2 40  1  0
  3 41  1  0
  3 42  1  0
  3 43  1  0
  5 44  1  0
  6 45  1  0
  7 46  1  0
  8 47  1  0
 13 48  1  0
 15 49  1  0
 16 50  1  0
 18 51  1  0
 19 52  1  0
 20 53  1  0
 20 54  1  0
 21 55  1  0
 21 56  1  0
 24 57  1  0
 25 58  1  0
 30 59  1  0
 31 60  1  0
 31 61  1  0
 32 62  1  0
 32 63  1  0
 33 64  1  0
 34 65  1  0
 35 66  1  0
 35 67  1  0
 36 68  1  0
 36 69  1  0
M  END
> <Name>
Molecule

> <AbsoluteEnergy>
65.1741

> <Clean Energy>
200.853

> <ConfNumber>
10

> <MOL_NUMBER>
4

> <RelativeEnergy>
3.65154

> <POSE_NUMBER>
84

> <LibDockScore>
108.9441

> <HotSpots>
-0.33,-25.52,53.19,A,64,8
-5.13,-23.32,51.38,A,54,15
-6.53,-30.72,51.78,A,56,33

$$$$
Molecule
  SciTegic05072616053D

 69 73  0  0  0  0            999 V2000
    0.8001  -23.5703   47.8681 C   0  0  0  1  0  0
    0.2467  -24.7959   48.6252 C   0  0  0  1  0  0
    0.8273  -26.1030   48.0486 C   0  0  0  1  0  0
    0.4707  -24.6882   50.1196 C   0  0  0  1  0  0
    1.8173  -24.6719   50.5495 C   0  0  0  1  0  0
    2.1481  -24.5323   51.9009 C   0  0  0  1  0  0
    1.1332  -24.3978   52.8496 C   0  0  0  1  0  0
   -0.2091  -24.4212   52.4483 C   0  0  0  1  0  0
   -0.5839  -24.5977   51.0917 C   0  0  0  1  0  0
   -2.0730  -24.6751   50.7057 C   0  0  0  1  0  0
   -2.4015  -23.6255   49.6212 C   0  0  0  1  0  0
   -1.6841  -22.6591   49.4884 O   0  0  0  1  0  0
   -3.5193  -23.7761   48.8080 N   0  0  0  1  0  0
   -3.8382  -23.0539   47.6596 C   0  0  0  1  0  0
   -5.1691  -23.0811   47.1816 C   0  0  0  1  0  0
   -5.5200  -22.3546   46.0257 C   0  0  0  1  0  0
   -4.5986  -21.6203   45.3423 N   0  0  0  1  0  0
   -3.3078  -21.5842   45.7769 C   0  0  0  1  0  0
   -2.8979  -22.2888   46.9250 C   0  0  0  1  0  0
   -2.3939  -26.1495   50.2505 C   0  0  0  1  0  0
   -2.4867  -27.1646   51.4063 C   0  0  0  1  0  0
   -3.5463  -26.7000   52.3246 N   0  0  0  1  0  0
   -4.7570  -27.3614   52.4634 C   0  0  0  1  0  0
   -4.8395  -28.7727   52.4177 C   0  0  0  1  0  0
   -6.0937  -29.4080   52.4352 C   0  0  0  1  0  0
   -7.2723  -28.6420   52.5127 C   0  0  0  1  0  0
   -8.6321  -29.2968   52.4218 C   0  0  0  1  0  0
   -9.3428  -29.0102   51.0954 C   0  0  0  1  0  0
   -8.8271  -28.2718   50.2853 O   0  0  0  1  0  0
  -10.5266  -29.5779   50.8560 O   0  0  0  1  0  0
   -8.8762  -30.6337   53.1085 C   0  0  0  1  0  0
   -9.4722  -29.3718   53.6892 C   0  0  0  1  0  0
   -7.1906  -27.2454   52.6473 C   0  0  0  1  0  0
   -5.9407  -26.6101   52.6267 C   0  0  0  1  0  0
   -3.2433  -25.4083   52.9766 C   0  0  0  1  0  0
   -3.0588  -24.3221   51.8893 C   0  0  0  1  0  0
    0.5320  -23.6543   46.8149 H   0  0
    1.8861  -23.5581   47.9604 H   0  0
    0.3829  -22.6534   48.2843 H   0  0
   -0.8328  -24.8175   48.4761 H   0  0
    1.9132  -26.0784   48.1401 H   0  0
    0.5590  -26.1746   46.9946 H   0  0
    0.4294  -26.9607   48.5909 H   0  0
    2.6142  -24.7702   49.8123 H   0  0
    3.1928  -24.5285   52.2118 H   0  0
    1.3849  -24.2745   53.9030 H   0  0
   -0.9883  -24.3002   53.2008 H   0  0
   -4.2158  -24.5349   49.0977 H   0  0
   -5.9245  -23.6647   47.7078 H   0  0
   -6.5504  -22.3810   45.6713 H   0  0
   -2.5757  -20.9964   45.2231 H   0  0
   -1.8580  -22.2459   47.2487 H   0  0
   -1.6211  -26.4800   49.5565 H   0  0
   -3.3386  -26.1516   49.7068 H   0  0
   -1.5349  -27.2084   51.9356 H   0  0
   -2.7462  -28.1473   51.0125 H   0  0
   -3.9285  -29.3692   52.3688 H   0  0
   -6.1535  -30.4954   52.3887 H   0  0
  -11.1357  -29.2861   51.6600 H   0  0
   -8.0012  -30.9605   53.6703 H   0  0
   -9.6234  -31.2244   52.5784 H   0  0
  -10.5367  -29.2917   53.4689 H   0  0
   -8.9138  -29.0269   54.5595 H   0  0
   -8.0994  -26.6557   52.7678 H   0  0
   -5.8828  -25.5273   52.7377 H   0  0
   -4.0675  -25.1293   53.6330 H   0  0
   -2.3263  -25.4991   53.5587 H   0  0
   -2.7075  -23.4097   52.3713 H   0  0
   -4.0366  -24.0885   51.4680 H   0  0
  1  2  1  0
  2  3  1  0
  2  4  1  0
  4  5  2  0
  4  9  1  0
  5  6  1  0
  6  7  2  0
  7  8  1  0
  8  9  2  0
  9 10  1  0
 10 11  1  0
 10 20  1  0
 10 36  1  0
 11 12  2  0
 11 13  1  0
 13 14  1  0
 14 15  2  0
 14 19  1  0
 15 16  1  0
 16 17  2  0
 17 18  1  0
 18 19  2  0
 20 21  1  0
 21 22  1  0
 22 23  1  0
 22 35  1  0
 23 24  2  0
 23 34  1  0
 24 25  1  0
 25 26  2  0
 26 27  1  0
 26 33  1  0
 27 28  1  0
 27 31  1  0
 27 32  1  0
 28 29  2  0
 28 30  1  0
 31 32  1  0
 33 34  2  0
 35 36  1  0
  1 37  1  0
  1 38  1  0
  1 39  1  0
  2 40  1  0
  3 41  1  0
  3 42  1  0
  3 43  1  0
  5 44  1  0
  6 45  1  0
  7 46  1  0
  8 47  1  0
 13 48  1  0
 15 49  1  0
 16 50  1  0
 18 51  1  0
 19 52  1  0
 20 53  1  0
 20 54  1  0
 21 55  1  0
 21 56  1  0
 24 57  1  0
 25 58  1  0
 30 59  1  0
 31 60  1  0
 31 61  1  0
 32 62  1  0
 32 63  1  0
 33 64  1  0
 34 65  1  0
 35 66  1  0
 35 67  1  0
 36 68  1  0
 36 69  1  0
M  END
> <Name>
Molecule

> <AbsoluteEnergy>
68.8405

> <Clean Energy>
200.853

> <ConfNumber>
27

> <MOL_NUMBER>
4

> <RelativeEnergy>
7.31793

> <POSE_NUMBER>
85

> <LibDockScore>
108.6216

> <HotSpots>
0.87,-24.32,52.78,A,63,7
-9.53,-30.12,52.78,A,62,31
-6.33,-26.32,51.98,A,57,34

$$$$
Molecule
  SciTegic05072616053D

 69 73  0  0  0  0            999 V2000
   -5.7706  -28.3251   51.7851 C   0  0  0  1  0  0
   -4.8118  -27.1314   51.6408 C   0  0  0  1  0  0
   -5.6006  -25.8630   51.2439 C   0  0  0  1  0  0
   -3.6541  -27.4100   50.7064 C   0  0  0  1  0  0
   -3.6843  -28.6757   50.0735 C   0  0  0  1  0  0
   -2.8221  -28.9866   49.0165 C   0  0  0  1  0  0
   -1.8954  -28.0383   48.5824 C   0  0  0  1  0  0
   -1.7794  -26.8225   49.2651 C   0  0  0  1  0  0
   -2.5727  -26.5077   50.4020 C   0  0  0  1  0  0
   -2.1534  -25.2218   51.1567 C   0  0  0  1  0  0
   -2.2395  -24.0356   50.1895 C   0  0  0  1  0  0
   -1.3709  -23.1940   50.1983 O   0  0  0  1  0  0
   -3.3164  -23.9535   49.3215 N   0  0  0  1  0  0
   -3.4596  -23.1964   48.1629 C   0  0  0  1  0  0
   -4.6792  -23.2914   47.4523 C   0  0  0  1  0  0
   -4.8732  -22.5504   46.2731 C   0  0  0  1  0  0
   -3.9030  -21.7275   45.7862 N   0  0  0  1  0  0
   -2.7174  -21.6182   46.4497 C   0  0  0  1  0  0
   -2.4649  -22.3373   47.6347 C   0  0  0  1  0  0
   -0.6717  -25.3885   51.6667 C   0  0  0  1  0  0
   -0.4810  -26.6196   52.5908 C   0  0  0  1  0  0
   -1.6896  -26.8302   53.4422 N   0  0  0  1  0  0
   -2.1735  -28.0778   53.8199 C   0  0  0  1  0  0
   -2.5454  -29.0316   52.8473 C   0  0  0  1  0  0
   -3.1586  -30.2361   53.2227 C   0  0  0  1  0  0
   -3.4004  -30.5133   54.5804 C   0  0  0  1  0  0
   -4.1509  -31.7646   54.9747 C   0  0  0  1  0  0
   -5.5946  -31.7624   54.4788 C   0  0  0  1  0  0
   -5.8261  -32.1154   53.3442 O   0  0  0  1  0  0
   -6.5673  -31.3717   55.3057 O   0  0  0  1  0  0
   -3.4133  -33.0951   55.0084 C   0  0  0  1  0  0
   -3.8230  -32.4339   56.3014 C   0  0  0  1  0  0
   -2.9563  -29.6119   55.5618 C   0  0  0  1  0  0
   -2.3412  -28.4062   55.1857 C   0  0  0  1  0  0
   -2.4057  -25.5778   53.7891 C   0  0  0  1  0  0
   -2.8831  -24.8454   52.5062 C   0  0  0  1  0  0
   -6.2784  -28.4953   50.8357 H   0  0
   -6.5100  -28.1016   52.5542 H   0  0
   -5.2097  -29.2168   52.0650 H   0  0
   -4.3518  -26.9574   52.6136 H   0  0
   -6.3402  -25.6438   52.0139 H   0  0
   -6.1087  -26.0375   50.2955 H   0  0
   -4.9168  -25.0202   51.1429 H   0  0
   -4.3962  -29.4259   50.4178 H   0  0
   -2.8740  -29.9633   48.5353 H   0  0
   -1.2656  -28.2433   47.7167 H   0  0
   -1.0539  -26.0896   48.9122 H   0  0
   -4.1595  -24.5598   49.5794 H   0  0
   -5.4723  -23.9421   47.8206 H   0  0
   -5.8189  -22.6362   45.7379 H   0  0
   -1.9456  -20.9582   46.0538 H   0  0
   -1.5067  -22.2328   48.1436 H   0  0
   -0.0096  -25.4867   50.8064 H   0  0
   -0.3799  -24.4902   52.2107 H   0  0
    0.3866  -26.4603   53.2312 H   0  0
   -0.3123  -27.5065   51.9800 H   0  0
   -2.3539  -28.8297   51.7934 H   0  0
   -3.4485  -30.9592   52.4603 H   0  0
   -6.2917  -30.4060   55.6121 H   0  0
   -2.3490  -32.9675   54.8107 H   0  0
   -4.0734  -33.9242   54.7534 H   0  0
   -4.7012  -32.9108   56.7366 H   0  0
   -2.9775  -31.9528   56.7931 H   0  0
   -3.0892  -29.8484   56.6175 H   0  0
   -1.9898  -27.7171   55.9536 H   0  0
   -3.2694  -25.8168   54.4096 H   0  0
   -1.7380  -24.9234   54.3495 H   0  0
   -2.7788  -23.7722   52.6660 H   0  0
   -3.9505  -25.0298   52.3844 H   0  0
  1  2  1  0
  2  3  1  0
  2  4  1  0
  4  5  2  0
  4  9  1  0
  5  6  1  0
  6  7  2  0
  7  8  1  0
  8  9  2  0
  9 10  1  0
 10 11  1  0
 10 20  1  0
 10 36  1  0
 11 12  2  0
 11 13  1  0
 13 14  1  0
 14 15  2  0
 14 19  1  0
 15 16  1  0
 16 17  2  0
 17 18  1  0
 18 19  2  0
 20 21  1  0
 21 22  1  0
 22 23  1  0
 22 35  1  0
 23 24  2  0
 23 34  1  0
 24 25  1  0
 25 26  2  0
 26 27  1  0
 26 33  1  0
 27 28  1  0
 27 31  1  0
 27 32  1  0
 28 29  2  0
 28 30  1  0
 31 32  1  0
 33 34  2  0
 35 36  1  0
  1 37  1  0
  1 38  1  0
  1 39  1  0
  2 40  1  0
  3 41  1  0
  3 42  1  0
  3 43  1  0
  5 44  1  0
  6 45  1  0
  7 46  1  0
  8 47  1  0
 13 48  1  0
 15 49  1  0
 16 50  1  0
 18 51  1  0
 19 52  1  0
 20 53  1  0
 20 54  1  0
 21 55  1  0
 21 56  1  0
 24 57  1  0
 25 58  1  0
 30 59  1  0
 31 60  1  0
 31 61  1  0
 32 62  1  0
 32 63  1  0
 33 64  1  0
 34 65  1  0
 35 66  1  0
 35 67  1  0
 36 68  1  0
 36 69  1  0
M  END
> <Name>
Molecule

> <AbsoluteEnergy>
78.134

> <Clean Energy>
200.853

> <ConfNumber>
85

> <MOL_NUMBER>
4

> <RelativeEnergy>
16.6114

> <POSE_NUMBER>
86

> <LibDockScore>
108.2628

> <HotSpots>
-1.93,-29.12,49.19,A,34,6
-2.53,-21.12,45.98,A,16,18
-4.13,-31.12,56.59,A,79,32

$$$$
Molecule
  SciTegic05072616053D

 69 73  0  0  0  0            999 V2000
    0.5290  -25.7900   53.0511 C   0  0  0  1  0  0
    0.1988  -24.3499   52.6152 C   0  0  0  1  0  0
    0.6479  -23.3237   53.6726 C   0  0  0  1  0  0
    0.7451  -24.0397   51.2391 C   0  0  0  1  0  0
    2.1480  -24.0815   51.1023 C   0  0  0  1  0  0
    2.7687  -23.7733   49.8873 C   0  0  0  1  0  0
    1.9904  -23.4197   48.7824 C   0  0  0  1  0  0
    0.5931  -23.3931   48.8878 C   0  0  0  1  0  0
   -0.0650  -23.7203   50.0988 C   0  0  0  1  0  0
   -1.5945  -23.7348   50.1445 C   0  0  0  1  0  0
   -2.0839  -25.1793   50.3727 C   0  0  0  1  0  0
   -2.7020  -25.4512   51.3772 O   0  0  0  1  0  0
   -1.8114  -26.1613   49.4298 N   0  0  0  1  0  0
   -1.7205  -27.5312   49.6502 C   0  0  0  1  0  0
   -2.0533  -28.1392   50.8838 C   0  0  0  1  0  0
   -1.9406  -29.5327   51.0358 C   0  0  0  1  0  0
   -1.5086  -30.3256   50.0147 N   0  0  0  1  0  0
   -1.1904  -29.7656   48.8133 C   0  0  0  1  0  0
   -1.2896  -28.3757   48.6016 C   0  0  0  1  0  0
   -2.2954  -23.2683   48.8081 C   0  0  0  1  0  0
   -3.8503  -23.3539   48.8601 C   0  0  0  1  0  0
   -4.3079  -23.1620   50.2680 N   0  0  0  1  0  0
   -5.1992  -24.0168   50.9171 C   0  0  0  1  0  0
   -6.2115  -24.7018   50.2051 C   0  0  0  1  0  0
   -6.8700  -25.7985   50.7855 C   0  0  0  1  0  0
   -6.5455  -26.1908   52.0945 C   0  0  0  1  0  0
   -7.0229  -27.5115   52.6394 C   0  0  0  1  0  0
   -5.8569  -28.4915   52.8021 C   0  0  0  1  0  0
   -4.8468  -28.1294   53.3679 O   0  0  0  1  0  0
   -5.9648  -29.7229   52.3075 O   0  0  0  1  0  0
   -8.3977  -28.0322   52.2498 C   0  0  0  1  0  0
   -8.1491  -27.5463   53.6591 C   0  0  0  1  0  0
   -5.7266  -25.3697   52.8834 C   0  0  0  1  0  0
   -5.0637  -24.2819   52.3020 C   0  0  0  1  0  0
   -3.5134  -22.1184   50.9605 C   0  0  0  1  0  0
   -2.1053  -22.7105   51.2368 C   0  0  0  1  0  0
    0.0224  -25.9930   53.9946 H   0  0
    1.6055  -25.8697   53.2026 H   0  0
    0.2042  -26.5009   52.2913 H   0  0
   -0.8857  -24.2703   52.5405 H   0  0
    1.7234  -23.4229   53.8192 H   0  0
    0.1403  -23.5461   54.6112 H   0  0
    0.4062  -22.3120   53.3469 H   0  0
    2.7606  -24.3594   51.9600 H   0  0
    3.8548  -23.8089   49.8030 H   0  0
    2.4702  -23.1643   47.8376 H   0  0
   -0.0011  -23.1141   48.0176 H   0  0
   -1.6544  -25.8280   48.4252 H   0  0
   -2.3974  -27.5268   51.7172 H   0  0
   -2.2043  -29.9883   51.9903 H   0  0
   -0.8520  -30.4064   47.9990 H   0  0
   -1.0343  -27.9523   47.6302 H   0  0
   -1.9362  -23.8862   47.9851 H   0  0
   -2.0062  -22.2386   48.5981 H   0  0
   -4.2789  -22.5750   48.2294 H   0  0
   -4.1740  -24.3316   48.5032 H   0  0
   -6.4821  -24.3768   49.2005 H   0  0
   -7.6289  -26.3422   50.2229 H   0  0
   -6.1802  -29.5869   51.2889 H   0  0
   -8.4132  -29.1208   52.1969 H   0  0
   -8.9514  -27.2988   51.6635 H   0  0
   -8.5720  -26.5551   53.8228 H   0  0
   -8.0323  -28.3765   54.3557 H   0  0
   -5.6065  -25.5779   53.9466 H   0  0
   -4.4396  -23.6352   52.9188 H   0  0
   -3.9920  -21.8546   51.9036 H   0  0
   -3.4232  -21.2395   50.3221 H   0  0
   -1.3909  -21.8906   51.3110 H   0  0
   -2.1210  -23.2100   52.2055 H   0  0
  1  2  1  0
  2  3  1  0
  2  4  1  0
  4  5  2  0
  4  9  1  0
  5  6  1  0
  6  7  2  0
  7  8  1  0
  8  9  2  0
  9 10  1  0
 10 11  1  0
 10 20  1  0
 10 36  1  0
 11 12  2  0
 11 13  1  0
 13 14  1  0
 14 15  2  0
 14 19  1  0
 15 16  1  0
 16 17  2  0
 17 18  1  0
 18 19  2  0
 20 21  1  0
 21 22  1  0
 22 23  1  0
 22 35  1  0
 23 24  2  0
 23 34  1  0
 24 25  1  0
 25 26  2  0
 26 27  1  0
 26 33  1  0
 27 28  1  0
 27 31  1  0
 27 32  1  0
 28 29  2  0
 28 30  1  0
 31 32  1  0
 33 34  2  0
 35 36  1  0
  1 37  1  0
  1 38  1  0
  1 39  1  0
  2 40  1  0
  3 41  1  0
  3 42  1  0
  3 43  1  0
  5 44  1  0
  6 45  1  0
  7 46  1  0
  8 47  1  0
 13 48  1  0
 15 49  1  0
 16 50  1  0
 18 51  1  0
 19 52  1  0
 20 53  1  0
 20 54  1  0
 21 55  1  0
 21 56  1  0
 24 57  1  0
 25 58  1  0
 30 59  1  0
 31 60  1  0
 31 61  1  0
 32 62  1  0
 32 63  1  0
 33 64  1  0
 34 65  1  0
 35 66  1  0
 35 67  1  0
 36 68  1  0
 36 69  1  0
M  END
> <Name>
Molecule

> <AbsoluteEnergy>
73.2225

> <Clean Energy>
200.853

> <ConfNumber>
51

> <MOL_NUMBER>
4

> <RelativeEnergy>
11.7

> <POSE_NUMBER>
87

> <LibDockScore>
107.6415

> <HotSpots>
0.47,-23.32,53.78,A,67,3
2.67,-22.92,49.98,A,39,6
-7.93,-28.32,52.38,A,59,31

$$$$
Molecule
  SciTegic05072616053D

 69 73  0  0  0  0            999 V2000
   -1.1205  -26.6158   47.9113 C   0  0  0  1  0  0
   -1.5871  -25.5313   48.9005 C   0  0  0  1  0  0
   -2.0711  -24.2638   48.1700 C   0  0  0  1  0  0
   -0.5294  -25.2178   49.9356 C   0  0  0  1  0  0
    0.6646  -24.6328   49.4630 C   0  0  0  1  0  0
    1.7074  -24.3016   50.3364 C   0  0  0  1  0  0
    1.5721  -24.5550   51.7043 C   0  0  0  1  0  0
    0.3963  -25.1369   52.1966 C   0  0  0  1  0  0
   -0.6790  -25.4809   51.3359 C   0  0  0  1  0  0
   -1.9479  -26.1150   51.9178 C   0  0  0  1  0  0
   -3.2156  -25.5192   51.2800 C   0  0  0  1  0  0
   -4.0570  -26.2671   50.8331 O   0  0  0  1  0  0
   -3.3812  -24.1396   51.2187 N   0  0  0  1  0  0
   -4.5128  -23.4520   50.7956 C   0  0  0  1  0  0
   -5.8017  -24.0335   50.7481 C   0  0  0  1  0  0
   -6.8991  -23.2730   50.3032 C   0  0  0  1  0  0
   -6.7557  -21.9743   49.9197 N   0  0  0  1  0  0
   -5.5268  -21.3885   49.9691 C   0  0  0  1  0  0
   -4.3915  -22.0997   50.4029 C   0  0  0  1  0  0
   -1.8541  -27.6789   51.7480 C   0  0  0  1  0  0
   -2.4913  -28.5144   52.8815 C   0  0  0  1  0  0
   -3.7107  -27.8384   53.3949 N   0  0  0  1  0  0
   -4.9795  -28.3984   53.2525 C   0  0  0  1  0  0
   -5.1359  -29.7906   53.0482 C   0  0  0  1  0  0
   -6.4038  -30.3444   52.8068 C   0  0  0  1  0  0
   -7.5404  -29.5190   52.7791 C   0  0  0  1  0  0
   -8.8939  -30.0921   52.4406 C   0  0  0  1  0  0
   -9.0745  -30.2438   50.9361 C   0  0  0  1  0  0
   -8.6268  -31.2251   50.3869 O   0  0  0  1  0  0
   -9.7090  -29.2961   50.2479 O   0  0  0  1  0  0
   -9.5428  -31.1178   53.3589 C   0  0  0  1  0  0
  -10.0993  -29.7159   53.2878 C   0  0  0  1  0  0
   -7.4092  -28.1453   53.0513 C   0  0  0  1  0  0
   -6.1413  -27.5899   53.2852 C   0  0  0  1  0  0
   -3.4573  -26.4948   54.0020 C   0  0  0  1  0  0
   -2.1489  -25.8648   53.4521 C   0  0  0  1  0  0
   -0.3081  -26.2088   47.3093 H   0  0
   -1.9540  -26.8682   47.2557 H   0  0
   -0.7828  -27.5024   48.4480 H   0  0
   -2.4439  -25.9369   49.4385 H   0  0
   -2.8961  -24.5371   47.5122 H   0  0
   -1.2502  -23.8777   47.5657 H   0  0
   -2.3963  -23.5103   48.8874 H   0  0
    0.7772  -24.4349   48.3970 H   0  0
    2.6208  -23.8481   49.9514 H   0  0
    2.3815  -24.2999   52.3883 H   0  0
    0.3051  -25.3300   53.2655 H   0  0
   -2.5488  -23.5440   51.5305 H   0  0
   -5.9446  -25.0694   51.0557 H   0  0
   -7.8861  -23.7339   50.2647 H   0  0
   -5.4200  -20.3469   49.6663 H   0  0
   -3.4195  -21.6075   50.4358 H   0  0
   -0.8039  -27.9578   51.6618 H   0  0
   -2.3283  -27.9553   50.8063 H   0  0
   -1.7740  -28.6300   53.6940 H   0  0
   -2.7589  -29.4991   52.4984 H   0  0
   -4.2615  -30.4407   53.0786 H   0  0
   -6.5062  -31.4168   52.6406 H   0  0
   -9.1808  -28.4135   50.4588 H   0  0
   -8.9558  -31.2721   54.2643 H   0  0
  -10.1567  -31.8233   52.7989 H   0  0
  -11.0107  -29.6748   52.6913 H   0  0
   -9.8088  -29.1233   54.1553 H   0  0
   -8.2945  -27.5102   53.0807 H   0  0
   -6.0502  -26.5240   53.4944 H   0  0
   -3.3777  -26.5985   55.0841 H   0  0
   -4.2953  -25.8354   53.7758 H   0  0
   -2.1684  -24.7909   53.6378 H   0  0
   -1.3003  -26.2825   53.9938 H   0  0
  1  2  1  0
  2  3  1  0
  2  4  1  0
  4  5  2  0
  4  9  1  0
  5  6  1  0
  6  7  2  0
  7  8  1  0
  8  9  2  0
  9 10  1  0
 10 11  1  0
 10 20  1  0
 10 36  1  0
 11 12  2  0
 11 13  1  0
 13 14  1  0
 14 15  2  0
 14 19  1  0
 15 16  1  0
 16 17  2  0
 17 18  1  0
 18 19  2  0
 20 21  1  0
 21 22  1  0
 22 23  1  0
 22 35  1  0
 23 24  2  0
 23 34  1  0
 24 25  1  0
 25 26  2  0
 26 27  1  0
 26 33  1  0
 27 28  1  0
 27 31  1  0
 27 32  1  0
 28 29  2  0
 28 30  1  0
 31 32  1  0
 33 34  2  0
 35 36  1  0
  1 37  1  0
  1 38  1  0
  1 39  1  0
  2 40  1  0
  3 41  1  0
  3 42  1  0
  3 43  1  0
  5 44  1  0
  6 45  1  0
  7 46  1  0
  8 47  1  0
 13 48  1  0
 15 49  1  0
 16 50  1  0
 18 51  1  0
 19 52  1  0
 20 53  1  0
 20 54  1  0
 21 55  1  0
 21 56  1  0
 24 57  1  0
 25 58  1  0
 30 59  1  0
 31 60  1  0
 31 61  1  0
 32 62  1  0
 32 63  1  0
 33 64  1  0
 34 65  1  0
 35 66  1  0
 35 67  1  0
 36 68  1  0
 36 69  1  0
M  END
> <Name>
Molecule

> <AbsoluteEnergy>
64.6106

> <Clean Energy>
200.853

> <ConfNumber>
8

> <MOL_NUMBER>
4

> <RelativeEnergy>
3.0881

> <POSE_NUMBER>
88

> <LibDockScore>
107.3361

> <HotSpots>
1.67,-24.32,50.98,A,50,7
-6.53,-23.32,50.38,A,45,16
-9.53,-30.12,52.78,A,62,32

$$$$
Molecule
  SciTegic05072616053D

 69 73  0  0  0  0            999 V2000
   -1.3256  -29.6099   49.9223 C   0  0  0  1  0  0
   -2.4695  -28.6520   50.3064 C   0  0  0  1  0  0
   -3.8199  -29.1717   49.7710 C   0  0  0  1  0  0
   -2.5049  -28.3924   51.7976 C   0  0  0  1  0  0
   -2.2993  -29.5071   52.6418 C   0  0  0  1  0  0
   -2.2661  -29.3675   54.0329 C   0  0  0  1  0  0
   -2.4198  -28.1016   54.6041 C   0  0  0  1  0  0
   -2.6284  -26.9851   53.7849 C   0  0  0  1  0  0
   -2.7255  -27.0982   52.3748 C   0  0  0  1  0  0
   -3.0486  -25.8619   51.5133 C   0  0  0  1  0  0
   -1.7433  -25.2306   50.9889 C   0  0  0  1  0  0
   -0.6854  -25.5441   51.4875 O   0  0  0  1  0  0
   -1.7939  -24.3117   49.9490 N   0  0  0  1  0  0
   -0.7957  -23.9618   49.0411 C   0  0  0  1  0  0
    0.5073  -24.5189   49.0295 C   0  0  0  1  0  0
    1.4428  -24.1003   48.0646 C   0  0  0  1  0  0
    1.1316  -23.1592   47.1300 N   0  0  0  1  0  0
   -0.1118  -22.6047   47.1238 C   0  0  0  1  0  0
   -1.0893  -22.9847   48.0612 C   0  0  0  1  0  0
   -4.0183  -26.2929   50.3353 C   0  0  0  1  0  0
   -5.4616  -25.7804   50.4611 C   0  0  0  1  0  0
   -5.8887  -25.9295   51.8709 N   0  0  0  1  0  0
   -6.7673  -26.9155   52.3110 C   0  0  0  1  0  0
   -7.7477  -26.6299   53.2877 C   0  0  0  1  0  0
   -8.5864  -27.6443   53.7795 C   0  0  0  1  0  0
   -8.4647  -28.9580   53.2951 C   0  0  0  1  0  0
   -9.3277  -30.0597   53.8587 C   0  0  0  1  0  0
   -9.0879  -30.2685   55.3464 C   0  0  0  1  0  0
   -9.7726  -29.6690   56.1422 O   0  0  0  1  0  0
   -8.1277  -31.1004   55.7472 O   0  0  0  1  0  0
  -10.7280  -30.2773   53.3084 C   0  0  0  1  0  0
   -9.6393  -31.2757   53.0004 C   0  0  0  1  0  0
   -7.5252  -29.2443   52.2913 C   0  0  0  1  0  0
   -6.6828  -28.2331   51.8038 C   0  0  0  1  0  0
   -5.2133  -24.9822   52.7929 C   0  0  0  1  0  0
   -3.7609  -24.7015   52.3160 C   0  0  0  1  0  0
   -1.2801  -29.6897   48.8362 H   0  0
   -1.5304  -30.5936   50.3448 H   0  0
   -0.3774  -29.2328   50.3055 H   0  0
   -2.2786  -27.6897   49.8314 H   0  0
   -4.0130  -30.1574   50.1942 H   0  0
   -3.7627  -29.2536   48.6856 H   0  0
   -4.6209  -28.4866   50.0486 H   0  0
   -2.1640  -30.4944   52.2002 H   0  0
   -2.1211  -30.2414   54.6681 H   0  0
   -2.3774  -27.9832   55.6868 H   0  0
   -2.7187  -26.0008   54.2445 H   0  0
   -2.7271  -23.8024   49.8280 H   0  0
    0.7850  -25.2714   49.7676 H   0  0
    2.4403  -24.5397   48.0652 H   0  0
   -0.3551  -21.8498   46.3761 H   0  0
   -2.0769  -22.5244   48.0324 H   0  0
   -3.6038  -25.9354   49.3927 H   0  0
   -4.0401  -27.3813   50.2796 H   0  0
   -5.5028  -24.7292   50.1757 H   0  0
   -6.1166  -26.3668   49.8168 H   0  0
   -7.8544  -25.6123   53.6634 H   0  0
   -9.3333  -27.4118   54.5386 H   0  0
   -7.2532  -30.7420   55.2896 H   0  0
  -10.9293  -29.6264   52.4576 H   0  0
  -11.4067  -30.6463   54.0774 H   0  0
   -9.7377  -32.1775   53.6048 H   0  0
   -9.2592  -31.1565   51.9858 H   0  0
   -7.4500  -30.2548   51.8896 H   0  0
   -5.9556  -28.4657   51.0259 H   0  0
   -5.7710  -24.0461   52.8204 H   0  0
   -5.1871  -25.4097   53.7952 H   0  0
   -3.1532  -24.4614   53.1884 H   0  0
   -3.7705  -23.8059   51.6948 H   0  0
  1  2  1  0
  2  3  1  0
  2  4  1  0
  4  5  2  0
  4  9  1  0
  5  6  1  0
  6  7  2  0
  7  8  1  0
  8  9  2  0
  9 10  1  0
 10 11  1  0
 10 20  1  0
 10 36  1  0
 11 12  2  0
 11 13  1  0
 13 14  1  0
 14 15  2  0
 14 19  1  0
 15 16  1  0
 16 17  2  0
 17 18  1  0
 18 19  2  0
 20 21  1  0
 21 22  1  0
 22 23  1  0
 22 35  1  0
 23 24  2  0
 23 34  1  0
 24 25  1  0
 25 26  2  0
 26 27  1  0
 26 33  1  0
 27 28  1  0
 27 31  1  0
 27 32  1  0
 28 29  2  0
 28 30  1  0
 31 32  1  0
 33 34  2  0
 35 36  1  0
  1 37  1  0
  1 38  1  0
  1 39  1  0
  2 40  1  0
  3 41  1  0
  3 42  1  0
  3 43  1  0
  5 44  1  0
  6 45  1  0
  7 46  1  0
  8 47  1  0
 13 48  1  0
 15 49  1  0
 16 50  1  0
 18 51  1  0
 19 52  1  0
 20 53  1  0
 20 54  1  0
 21 55  1  0
 21 56  1  0
 24 57  1  0
 25 58  1  0
 30 59  1  0
 31 60  1  0
 31 61  1  0
 32 62  1  0
 32 63  1  0
 33 64  1  0
 34 65  1  0
 35 66  1  0
 35 67  1  0
 36 68  1  0
 36 69  1  0
M  END
> <Name>
Molecule

> <AbsoluteEnergy>
66.912

> <Clean Energy>
200.853

> <ConfNumber>
17

> <MOL_NUMBER>
4

> <RelativeEnergy>
5.3895

> <POSE_NUMBER>
89

> <LibDockScore>
105.3278

> <HotSpots>
-0.93,-23.32,46.98,A,25,18
-8.73,-28.12,54.38,A,70,25
-10.93,-30.92,53.98,A,68,32

$$$$
Molecule
  SciTegic05072616053D

 69 73  0  0  0  0            999 V2000
  -10.1451  -26.5567   62.4056 C   0  0  0  1  0  0
  -11.5001  -27.1875   62.0319 C   0  0  0  1  0  0
  -11.4220  -28.7029   61.7985 C   0  0  0  1  0  0
  -12.3643  -26.3676   61.0744 C   0  0  0  1  0  0
  -13.5982  -25.9471   61.6382 C   0  0  0  1  0  0
  -14.5567  -25.2513   60.8968 C   0  0  0  1  0  0
  -14.3080  -24.9544   59.5594 C   0  0  0  1  0  0
  -13.0919  -25.3265   58.9807 C   0  0  0  1  0  0
  -12.0683  -25.9958   59.7077 C   0  0  0  1  0  0
  -10.7454  -26.2673   58.9645 C   0  0  0  1  0  0
   -9.5500  -25.5120   59.5606 C   0  0  0  1  0  0
   -8.5203  -26.1162   59.7554 O   0  0  0  1  0  0
   -9.6345  -24.1529   59.8513 N   0  0  0  1  0  0
   -8.5556  -23.2993   60.0444 C   0  0  0  1  0  0
   -8.7473  -22.0449   60.6691 C   0  0  0  1  0  0
   -7.6455  -21.1907   60.8763 C   0  0  0  1  0  0
   -6.3901  -21.5408   60.4788 N   0  0  0  1  0  0
   -6.1863  -22.7379   59.8591 C   0  0  0  1  0  0
   -7.2472  -23.6310   59.6232 C   0  0  0  1  0  0
  -10.5496  -27.8130   58.8171 C   0  0  0  1  0  0
   -9.3189  -28.2621   57.9925 C   0  0  0  1  0  0
   -9.2743  -27.6005   56.6563 N   0  0  0  1  0  0
   -9.0967  -28.3023   55.4637 C   0  0  0  1  0  0
   -8.7251  -27.6243   54.2778 C   0  0  0  1  0  0
   -8.6158  -28.3125   53.0571 C   0  0  0  1  0  0
   -8.8604  -29.6960   53.0009 C   0  0  0  1  0  0
   -8.8190  -30.4322   51.6800 C   0  0  0  1  0  0
   -9.9539  -30.0417   50.7225 C   0  0  0  1  0  0
   -9.7613  -30.1241   49.5307 O   0  0  0  1  0  0
  -11.1372  -29.6196   51.1883 O   0  0  0  1  0  0
   -8.3419  -31.8778   51.6548 C   0  0  0  1  0  0
   -7.4561  -30.7883   51.1009 C   0  0  0  1  0  0
   -9.1656  -30.3942   54.1829 C   0  0  0  1  0  0
   -9.2913  -29.7032   55.3999 C   0  0  0  1  0  0
   -9.4569  -26.1202   56.6878 C   0  0  0  1  0  0
  -10.7360  -25.7587   57.4745 C   0  0  0  1  0  0
   -9.4455  -26.7672   61.5967 H   0  0
   -9.7870  -27.0487   63.3099 H   0  0
  -10.2398  -25.4823   62.5632 H   0  0
  -12.1123  -27.1184   62.9311 H   0  0
  -11.0439  -29.1613   62.7123 H   0  0
  -10.7025  -28.8798   60.9991 H   0  0
  -12.3973  -29.1131   61.5367 H   0  0
  -13.8043  -26.1747   62.6840 H   0  0
  -15.4928  -24.9430   61.3623 H   0  0
  -15.0594  -24.4335   58.9659 H   0  0
  -12.9204  -25.0946   57.9296 H   0  0
  -10.6139  -23.7299   59.9329 H   0  0
   -9.7436  -21.7399   60.9892 H   0  0
   -7.8011  -20.2290   61.3652 H   0  0
   -5.1800  -23.0087   59.5397 H   0  0
   -7.0608  -24.5778   59.1162 H   0  0
  -10.4759  -28.2496   59.8131 H   0  0
  -11.4443  -28.2346   58.3591 H   0  0
   -8.4106  -28.0159   58.5424 H   0  0
   -9.3549  -29.3426   57.8537 H   0  0
   -8.5210  -26.5541   54.3118 H   0  0
   -8.3406  -27.7721   52.1514 H   0  0
  -10.8935  -28.8077   51.8079 H   0  0
   -8.8267  -32.4451   50.8603 H   0  0
   -8.0090  -32.2055   52.6396 H   0  0
   -6.6504  -30.5353   51.7901 H   0  0
   -7.4694  -30.7738   50.0111 H   0  0
   -9.3051  -31.4749   54.1549 H   0  0
   -9.5420  -30.2531   56.3070 H   0  0
   -9.5414  -25.7434   55.6685 H   0  0
   -8.5943  -25.6595   57.1693 H   0  0
  -10.8537  -24.6751   57.4714 H   0  0
  -11.5969  -26.1788   56.9544 H   0  0
  1  2  1  0
  2  3  1  0
  2  4  1  0
  4  5  2  0
  4  9  1  0
  5  6  1  0
  6  7  2  0
  7  8  1  0
  8  9  2  0
  9 10  1  0
 10 11  1  0
 10 20  1  0
 10 36  1  0
 11 12  2  0
 11 13  1  0
 13 14  1  0
 14 15  2  0
 14 19  1  0
 15 16  1  0
 16 17  2  0
 17 18  1  0
 18 19  2  0
 20 21  1  0
 21 22  1  0
 22 23  1  0
 22 35  1  0
 23 24  2  0
 23 34  1  0
 24 25  1  0
 25 26  2  0
 26 27  1  0
 26 33  1  0
 27 28  1  0
 27 31  1  0
 27 32  1  0
 28 29  2  0
 28 30  1  0
 31 32  1  0
 33 34  2  0
 35 36  1  0
  1 37  1  0
  1 38  1  0
  1 39  1  0
  2 40  1  0
  3 41  1  0
  3 42  1  0
  3 43  1  0
  5 44  1  0
  6 45  1  0
  7 46  1  0
  8 47  1  0
 13 48  1  0
 15 49  1  0
 16 50  1  0
 18 51  1  0
 19 52  1  0
 20 53  1  0
 20 54  1  0
 21 55  1  0
 21 56  1  0
 24 57  1  0
 25 58  1  0
 30 59  1  0
 31 60  1  0
 31 61  1  0
 32 62  1  0
 32 63  1  0
 33 64  1  0
 34 65  1  0
 35 66  1  0
 35 67  1  0
 36 68  1  0
 36 69  1  0
M  END
> <Name>
Molecule

> <AbsoluteEnergy>
76.6971

> <Clean Energy>
200.853

> <ConfNumber>
74

> <MOL_NUMBER>
4

> <RelativeEnergy>
15.1745

> <POSE_NUMBER>
90

> <LibDockScore>
104.9453

> <HotSpots>
-6.93,-20.92,60.98,A,90,16
-6.73,-23.12,59.38,A,84,19
-8.53,-31.32,51.19,A,51,31

$$$$
Molecule
  SciTegic05072616053D

 69 73  0  0  0  0            999 V2000
   -5.0434  -31.3339   52.7153 C   0  0  0  1  0  0
   -5.8972  -30.8200   51.5414 C   0  0  0  1  0  0
   -6.3325  -31.9666   50.6094 C   0  0  0  1  0  0
   -7.0710  -29.9943   52.0207 C   0  0  0  1  0  0
   -8.3254  -30.6438   52.0831 C   0  0  0  1  0  0
   -9.4737  -29.9646   52.5066 C   0  0  0  1  0  0
   -9.3876  -28.6196   52.8775 C   0  0  0  1  0  0
   -8.1532  -27.9580   52.8281 C   0  0  0  1  0  0
   -6.9691  -28.6186   52.4070 C   0  0  0  1  0  0
   -5.6371  -27.8568   52.3743 C   0  0  0  1  0  0
   -4.6966  -28.4250   53.4596 C   0  0  0  1  0  0
   -5.1968  -28.9999   54.3999 O   0  0  0  1  0  0
   -3.3155  -28.2820   53.3665 N   0  0  0  1  0  0
   -2.3574  -28.3830   54.3736 C   0  0  0  1  0  0
   -2.5393  -29.1009   55.5807 C   0  0  0  1  0  0
   -1.5129  -29.1206   56.5467 C   0  0  0  1  0  0
   -0.3293  -28.4728   56.3477 N   0  0  0  1  0  0
   -0.1262  -27.7853   55.1878 C   0  0  0  1  0  0
   -1.1158  -27.7263   54.1880 C   0  0  0  1  0  0
   -5.7763  -26.3473   52.7600 C   0  0  0  1  0  0
   -4.4383  -25.5785   52.7277 C   0  0  0  1  0  0
   -3.6597  -25.8759   51.4886 N   0  0  0  1  0  0
   -2.3107  -25.5508   51.3619 C   0  0  0  1  0  0
   -1.5808  -25.0320   52.4562 C   0  0  0  1  0  0
   -0.2165  -24.7259   52.3312 C   0  0  0  1  0  0
    0.4447  -24.9302   51.1085 C   0  0  0  1  0  0
    1.9133  -24.6027   50.9703 C   0  0  0  1  0  0
    2.2633  -24.0365   49.6031 C   0  0  0  1  0  0
    2.2450  -22.8367   49.4351 O   0  0  0  1  0  0
    2.5816  -24.8827   48.6211 O   0  0  0  1  0  0
    2.9350  -25.5047   51.6417 C   0  0  0  1  0  0
    2.6853  -24.1236   52.1902 C   0  0  0  1  0  0
   -0.2715  -25.4354   50.0118 C   0  0  0  1  0  0
   -1.6359  -25.7405   50.1351 C   0  0  0  1  0  0
   -4.4142  -26.5670   50.4036 C   0  0  0  1  0  0
   -5.0874  -27.8742   50.8950 C   0  0  0  1  0  0
   -4.1613  -31.8303   52.3108 H   0  0
   -5.6301  -32.0595   53.2788 H   0  0
   -4.7464  -30.5079   53.3616 H   0  0
   -5.2680  -30.1553   50.9495 H   0  0
   -6.9078  -32.6866   51.1914 H   0  0
   -5.4391  -32.4574   50.2234 H   0  0
   -6.9349  -31.5818   49.7865 H   0  0
   -8.3996  -31.6927   51.7961 H   0  0
  -10.4318  -30.4827   52.5470 H   0  0
  -10.2798  -28.0859   53.2049 H   0  0
   -8.1008  -26.9093   53.1205 H   0  0
   -2.9379  -28.0651   52.3891 H   0  0
   -3.4708  -29.6370   55.7624 H   0  0
   -1.6692  -29.6675   57.4765 H   0  0
    0.8219  -27.2708   55.0314 H   0  0
   -0.9260  -27.1735   53.2680 H   0  0
   -6.1996  -26.2751   53.7619 H   0  0
   -6.4736  -25.8696   52.0718 H   0  0
   -4.6391  -24.5082   52.7745 H   0  0
   -3.8434  -25.8564   53.5978 H   0  0
   -2.0839  -24.8676   53.4091 H   0  0
    0.3316  -24.3285   53.1854 H   0  0
    1.7611  -25.5329   48.5402 H   0  0
    3.8638  -25.5503   51.0730 H   0  0
    2.4535  -26.2720   52.2479 H   0  0
    2.0701  -24.1525   53.0895 H   0  0
    3.4795  -23.4304   51.9131 H   0  0
    0.2349  -25.5916   49.0593 H   0  0
   -2.1812  -26.1282   49.2746 H   0  0
   -3.7302  -26.8037   49.5886 H   0  0
   -5.1811  -25.8943   50.0196 H   0  0
   -5.9106  -28.1119   50.2213 H   0  0
   -4.3683  -28.6881   50.8022 H   0  0
  1  2  1  0
  2  3  1  0
  2  4  1  0
  4  5  2  0
  4  9  1  0
  5  6  1  0
  6  7  2  0
  7  8  1  0
  8  9  2  0
  9 10  1  0
 10 11  1  0
 10 20  1  0
 10 36  1  0
 11 12  2  0
 11 13  1  0
 13 14  1  0
 14 15  2  0
 14 19  1  0
 15 16  1  0
 16 17  2  0
 17 18  1  0
 18 19  2  0
 20 21  1  0
 21 22  1  0
 22 23  1  0
 22 35  1  0
 23 24  2  0
 23 34  1  0
 24 25  1  0
 25 26  2  0
 26 27  1  0
 26 33  1  0
 27 28  1  0
 27 31  1  0
 27 32  1  0
 28 29  2  0
 28 30  1  0
 31 32  1  0
 33 34  2  0
 35 36  1  0
  1 37  1  0
  1 38  1  0
  1 39  1  0
  2 40  1  0
  3 41  1  0
  3 42  1  0
  3 43  1  0
  5 44  1  0
  6 45  1  0
  7 46  1  0
  8 47  1  0
 13 48  1  0
 15 49  1  0
 16 50  1  0
 18 51  1  0
 19 52  1  0
 20 53  1  0
 20 54  1  0
 21 55  1  0
 21 56  1  0
 24 57  1  0
 25 58  1  0
 30 59  1  0
 31 60  1  0
 31 61  1  0
 32 62  1  0
 32 63  1  0
 33 64  1  0
 34 65  1  0
 35 66  1  0
 35 67  1  0
 36 68  1  0
 36 69  1  0
M  END
> <Name>
Molecule

> <AbsoluteEnergy>
65.7298

> <Clean Energy>
200.853

> <ConfNumber>
11

> <MOL_NUMBER>
4

> <RelativeEnergy>
4.20728

> <POSE_NUMBER>
91

> <LibDockScore>
103.2354

> <HotSpots>
-0.93,-28.12,54.98,A,74,16
-6.33,-26.32,51.98,A,57,20
1.87,-25.32,48.38,A,30,32

$$$$
Molecule
  SciTegic05072616053D

 69 73  0  0  0  0            999 V2000
   -3.9655  -23.9119   49.8492 C   0  0  0  1  0  0
   -3.7232  -24.8901   51.0232 C   0  0  0  1  0  0
   -3.2911  -24.1259   52.2863 C   0  0  0  1  0  0
   -4.8860  -25.8195   51.3100 C   0  0  0  1  0  0
   -6.1637  -25.2312   51.1507 C   0  0  0  1  0  0
   -7.3430  -25.9416   51.3887 C   0  0  0  1  0  0
   -7.2745  -27.2711   51.7999 C   0  0  0  1  0  0
   -6.0265  -27.8839   51.9532 C   0  0  0  1  0  0
   -4.8000  -27.2014   51.7223 C   0  0  0  1  0  0
   -3.5427  -28.0722   51.9468 C   0  0  0  1  0  0
   -3.8031  -28.9729   53.1780 C   0  0  0  1  0  0
   -3.9512  -28.4089   54.2398 O   0  0  0  1  0  0
   -3.8649  -30.3641   53.1006 N   0  0  0  1  0  0
   -4.2195  -31.2806   54.0985 C   0  0  0  1  0  0
   -4.6751  -30.9235   55.3939 C   0  0  0  1  0  0
   -5.0136  -31.9209   56.3299 C   0  0  0  1  0  0
   -4.9162  -33.2452   56.0277 N   0  0  0  1  0  0
   -4.4812  -33.6196   54.7943 C   0  0  0  1  0  0
   -4.1298  -32.6667   53.8173 C   0  0  0  1  0  0
   -2.1855  -27.3694   52.2957 C   0  0  0  1  0  0
   -1.2221  -27.0255   51.1215 C   0  0  0  1  0  0
   -1.9065  -26.8250   49.8040 N   0  0  0  1  0  0
   -1.6552  -25.7181   48.9701 C   0  0  0  1  0  0
   -2.3827  -25.5385   47.7668 C   0  0  0  1  0  0
   -2.2400  -24.3744   46.9923 C   0  0  0  1  0  0
   -1.3579  -23.3587   47.3929 C   0  0  0  1  0  0
   -1.2984  -22.0502   46.6353 C   0  0  0  1  0  0
    0.0182  -21.7843   45.9137 C   0  0  0  1  0  0
   -0.0020  -21.3974   44.7672 O   0  0  0  1  0  0
    1.1741  -21.9632   46.5534 O   0  0  0  1  0  0
   -2.0183  -20.8553   47.2426 C   0  0  0  1  0  0
   -2.5795  -21.5152   46.0083 C   0  0  0  1  0  0
   -0.5465  -23.5630   48.5199 C   0  0  0  1  0  0
   -0.6871  -24.7296   49.2930 C   0  0  0  1  0  0
   -2.9117  -27.8782   49.4487 C   0  0  0  1  0  0
   -3.2330  -28.8357   50.6227 C   0  0  0  1  0  0
   -3.0442  -23.3657   49.6467 H   0  0
   -4.7458  -23.2051   50.1317 H   0  0
   -4.2709  -24.4637   48.9602 H   0  0
   -2.9102  -25.5427   50.7050 H   0  0
   -4.0743  -23.4182   52.5580 H   0  0
   -2.3728  -23.5787   52.0730 H   0  0
   -3.1233  -24.8241   53.1063 H   0  0
   -6.2296  -24.1908   50.8322 H   0  0
   -8.3108  -25.4587   51.2535 H   0  0
   -8.1882  -27.8304   52.0010 H   0  0
   -5.9924  -28.9285   52.2627 H   0  0
   -3.6070  -30.7877   52.1524 H   0  0
   -4.7637  -29.8719   55.6665 H   0  0
   -5.3618  -31.6254   57.3196 H   0  0
   -4.4027  -34.6804   54.5564 H   0  0
   -3.7863  -32.9984   52.8375 H   0  0
   -1.6465  -27.9994   53.0033 H   0  0
   -2.4075  -26.4478   52.8336 H   0  0
   -0.4924  -27.8284   51.0172 H   0  0
   -0.6727  -26.1179   51.3715 H   0  0
   -3.0670  -26.3195   47.4353 H   0  0
   -2.8177  -24.2597   46.0752 H   0  0
    1.1422  -22.9581   46.8874 H   0  0
   -1.5121  -19.9199   47.0043 H   0  0
   -2.5737  -21.1362   48.1374 H   0  0
   -3.4345  -22.1489   46.2438 H   0  0
   -2.3714  -20.9334   45.1104 H   0  0
    0.1957  -22.8144   48.7971 H   0  0
   -0.0401  -24.8783   50.1575 H   0  0
   -2.5316  -28.4620   48.6104 H   0  0
   -3.8328  -27.3928   49.1261 H   0  0
   -4.0932  -29.4493   50.3549 H   0  0
   -2.3821  -29.4976   50.7841 H   0  0
  1  2  1  0
  2  3  1  0
  2  4  1  0
  4  5  2  0
  4  9  1  0
  5  6  1  0
  6  7  2  0
  7  8  1  0
  8  9  2  0
  9 10  1  0
 10 11  1  0
 10 20  1  0
 10 36  1  0
 11 12  2  0
 11 13  1  0
 13 14  1  0
 14 15  2  0
 14 19  1  0
 15 16  1  0
 16 17  2  0
 17 18  1  0
 18 19  2  0
 20 21  1  0
 21 22  1  0
 22 23  1  0
 22 35  1  0
 23 24  2  0
 23 34  1  0
 24 25  1  0
 25 26  2  0
 26 27  1  0
 26 33  1  0
 27 28  1  0
 27 31  1  0
 27 32  1  0
 28 29  2  0
 28 30  1  0
 31 32  1  0
 33 34  2  0
 35 36  1  0
  1 37  1  0
  1 38  1  0
  1 39  1  0
  2 40  1  0
  3 41  1  0
  3 42  1  0
  3 43  1  0
  5 44  1  0
  6 45  1  0
  7 46  1  0
  8 47  1  0
 13 48  1  0
 15 49  1  0
 16 50  1  0
 18 51  1  0
 19 52  1  0
 20 53  1  0
 20 54  1  0
 21 55  1  0
 21 56  1  0
 24 57  1  0
 25 58  1  0
 30 59  1  0
 31 60  1  0
 31 61  1  0
 32 62  1  0
 32 63  1  0
 33 64  1  0
 34 65  1  0
 35 66  1  0
 35 67  1  0
 36 68  1  0
 36 69  1  0
M  END
> <Name>
Molecule

> <AbsoluteEnergy>
76.5807

> <Clean Energy>
200.853

> <ConfNumber>
71

> <MOL_NUMBER>
4

> <RelativeEnergy>
15.0582

> <POSE_NUMBER>
92

> <LibDockScore>
102.4644

> <HotSpots>
-5.93,-24.72,51.19,A,53,5
-4.13,-31.12,56.59,A,79,16
-2.53,-21.12,45.98,A,16,32

$$$$
Molecule
  SciTegic05072616053D

 69 73  0  0  0  0            999 V2000
   -7.9098  -30.2391   51.2622 C   0  0  0  1  0  0
   -7.1265  -29.2204   52.1120 C   0  0  0  1  0  0
   -7.9694  -27.9685   52.4177 C   0  0  0  1  0  0
   -6.5552  -29.8268   53.3751 C   0  0  0  1  0  0
   -7.4797  -30.4508   54.2398 C   0  0  0  1  0  0
   -7.0691  -31.0521   55.4326 C   0  0  0  1  0  0
   -5.7177  -31.0348   55.7867 C   0  0  0  1  0  0
   -4.7832  -30.4112   54.9516 C   0  0  0  1  0  0
   -5.1649  -29.7907   53.7342 C   0  0  0  1  0  0
   -4.1049  -29.0991   52.8713 C   0  0  0  1  0  0
   -4.7621  -27.9324   52.1112 C   0  0  0  1  0  0
   -4.9182  -28.0233   50.9126 O   0  0  0  1  0  0
   -5.1323  -26.7684   52.7739 N   0  0  0  1  0  0
   -5.5652  -25.6051   52.1513 C   0  0  0  1  0  0
   -6.4824  -25.5995   51.0754 C   0  0  0  1  0  0
   -6.7631  -24.3942   50.4063 C   0  0  0  1  0  0
   -6.1952  -23.2180   50.7889 N   0  0  0  1  0  0
   -5.3675  -23.1886   51.8699 C   0  0  0  1  0  0
   -5.0427  -24.3631   52.5753 C   0  0  0  1  0  0
   -3.3895  -30.1293   51.9192 C   0  0  0  1  0  0
   -2.3142  -29.5169   50.9697 C   0  0  0  1  0  0
   -1.9755  -28.1278   51.3919 N   0  0  0  1  0  0
   -2.1425  -27.0336   50.5448 C   0  0  0  1  0  0
   -2.2204  -27.1880   49.1428 C   0  0  0  1  0  0
   -2.6496  -26.1196   48.3337 C   0  0  0  1  0  0
   -3.0116  -24.8876   48.9167 C   0  0  0  1  0  0
   -3.6716  -23.7857   48.1096 C   0  0  0  1  0  0
   -3.2004  -22.3809   48.4623 C   0  0  0  1  0  0
   -3.4319  -21.9425   49.5679 O   0  0  0  1  0  0
   -2.5477  -21.6695   47.5472 O   0  0  0  1  0  0
   -5.1633  -23.9575   47.8607 C   0  0  0  1  0  0
   -4.2038  -24.0193   46.7018 C   0  0  0  1  0  0
   -2.7805  -24.6939   50.2894 C   0  0  0  1  0  0
   -2.3156  -25.7425   51.0885 C   0  0  0  1  0  0
   -1.6703  -28.0164   52.8388 C   0  0  0  1  0  0
   -2.8784  -28.5147   53.6855 C   0  0  0  1  0  0
   -8.2026  -29.7593   50.3283 H   0  0
   -8.8079  -30.5282   51.8080 H   0  0
   -7.2964  -31.1165   51.0572 H   0  0
   -6.2751  -28.9078   51.5074 H   0  0
   -8.8670  -28.2772   52.9535 H   0  0
   -8.2617  -27.5083   51.4738 H   0  0
   -7.3978  -27.2614   53.0189 H   0  0
   -8.5361  -30.4640   53.9717 H   0  0
   -7.7997  -31.5323   56.0836 H   0  0
   -5.3910  -31.5069   56.7133 H   0  0
   -3.7334  -30.4021   55.2447 H   0  0
   -5.0799  -26.7685   53.8426 H   0  0
   -6.9695  -26.5242   50.7659 H   0  0
   -7.4517  -24.4025   49.5614 H   0  0
   -4.9480  -22.2367   52.1956 H   0  0
   -4.3896  -24.3140   53.4466 H   0  0
   -4.1453  -30.6280   51.3123 H   0  0
   -2.9165  -30.8984   52.5298 H   0  0
   -1.4145  -30.1315   50.9989 H   0  0
   -2.6993  -29.4993   49.9501 H   0  0
   -1.9468  -28.1389   48.6857 H   0  0
   -2.7024  -26.2448   47.2522 H   0  0
   -3.1915  -21.6343   46.7185 H   0  0
   -5.6876  -23.0026   47.8996 H   0  0
   -5.5052  -24.9499   48.1546 H   0  0
   -4.0320  -25.0448   46.3749 H   0  0
   -4.2131  -23.0971   46.1208 H   0  0
   -2.9655  -23.7166   50.7353 H   0  0
   -2.0852  -25.5619   52.1385 H   0  0
   -1.4616  -26.9755   53.0859 H   0  0
   -0.7933  -28.6208   53.0706 H   0  0
   -2.5230  -29.2802   54.3753 H   0  0
   -3.2332  -27.6872   54.2999 H   0  0
  1  2  1  0
  2  3  1  0
  2  4  1  0
  4  5  2  0
  4  9  1  0
  5  6  1  0
  6  7  2  0
  7  8  1  0
  8  9  2  0
  9 10  1  0
 10 11  1  0
 10 20  1  0
 10 36  1  0
 11 12  2  0
 11 13  1  0
 13 14  1  0
 14 15  2  0
 14 19  1  0
 15 16  1  0
 16 17  2  0
 17 18  1  0
 18 19  2  0
 20 21  1  0
 21 22  1  0
 22 23  1  0
 22 35  1  0
 23 24  2  0
 23 34  1  0
 24 25  1  0
 25 26  2  0
 26 27  1  0
 26 33  1  0
 27 28  1  0
 27 31  1  0
 27 32  1  0
 28 29  2  0
 28 30  1  0
 31 32  1  0
 33 34  2  0
 35 36  1  0
  1 37  1  0
  1 38  1  0
  1 39  1  0
  2 40  1  0
  3 41  1  0
  3 42  1  0
  3 43  1  0
  5 44  1  0
  6 45  1  0
  7 46  1  0
  8 47  1  0
 13 48  1  0
 15 49  1  0
 16 50  1  0
 18 51  1  0
 19 52  1  0
 20 53  1  0
 20 54  1  0
 21 55  1  0
 21 56  1  0
 24 57  1  0
 25 58  1  0
 30 59  1  0
 31 60  1  0
 31 61  1  0
 32 62  1  0
 32 63  1  0
 33 64  1  0
 34 65  1  0
 35 66  1  0
 35 67  1  0
 36 68  1  0
 36 69  1  0
M  END
> <Name>
Molecule

> <AbsoluteEnergy>
76.6229

> <Clean Energy>
200.853

> <ConfNumber>
72

> <MOL_NUMBER>
4

> <RelativeEnergy>
15.1004

> <POSE_NUMBER>
93

> <LibDockScore>
102.2176

> <HotSpots>
-6.53,-30.72,51.78,A,56,1
-5.13,-23.32,51.38,A,54,19
-4.53,-24.52,46.19,A,17,31

$$$$
Molecule
  SciTegic05072616053D

 69 73  0  0  0  0            999 V2000
   -5.4075  -23.0379   48.3339 C   0  0  0  1  0  0
   -4.5575  -23.8106   47.3083 C   0  0  0  1  0  0
   -5.3259  -24.0531   45.9964 C   0  0  0  1  0  0
   -3.2137  -23.1530   47.0801 C   0  0  0  1  0  0
   -3.2405  -21.8214   46.6163 C   0  0  0  1  0  0
   -2.0608  -21.1212   46.3449 C   0  0  0  1  0  0
   -0.8248  -21.7461   46.5350 C   0  0  0  1  0  0
   -0.7730  -23.0633   47.0092 C   0  0  0  1  0  0
   -1.9511  -23.7941   47.3080 C   0  0  0  1  0  0
   -1.8370  -25.2172   47.8605 C   0  0  0  1  0  0
   -2.1397  -25.2236   49.3688 C   0  0  0  1  0  0
   -3.1129  -25.8185   49.7760 O   0  0  0  1  0  0
   -1.3086  -24.5670   50.2650 N   0  0  0  1  0  0
   -1.0920  -24.9577   51.5802 C   0  0  0  1  0  0
   -1.6769  -26.1251   52.1271 C   0  0  0  1  0  0
   -1.4358  -26.4731   53.4659 C   0  0  0  1  0  0
   -0.6297  -25.7150   54.2603 N   0  0  0  1  0  0
   -0.0388  -24.5956   53.7508 C   0  0  0  1  0  0
   -0.2526  -24.1922   52.4176 C   0  0  0  1  0  0
   -2.7834  -26.1828   47.0435 C   0  0  0  1  0  0
   -2.3703  -27.6789   47.0644 C   0  0  0  1  0  0
   -1.6201  -27.9571   48.3127 N   0  0  0  1  0  0
   -2.1629  -28.6152   49.4120 C   0  0  0  1  0  0
   -3.5377  -28.9428   49.4288 C   0  0  0  1  0  0
   -4.1445  -29.4121   50.5991 C   0  0  0  1  0  0
   -3.3851  -29.5861   51.7667 C   0  0  0  1  0  0
   -4.0851  -29.9659   53.0476 C   0  0  0  1  0  0
   -4.2895  -31.4663   53.2051 C   0  0  0  1  0  0
   -5.3082  -31.9538   52.7718 O   0  0  0  1  0  0
   -3.3628  -32.2127   53.8066 O   0  0  0  1  0  0
   -3.9502  -29.0836   54.2797 C   0  0  0  1  0  0
   -5.2320  -29.0652   53.4850 C   0  0  0  1  0  0
   -1.9941  -29.3867   51.7271 C   0  0  0  1  0  0
   -1.3819  -28.9157   50.5515 C   0  0  0  1  0  0
   -0.2930  -27.2816   48.3536 C   0  0  0  1  0  0
   -0.4052  -25.8632   47.7222 C   0  0  0  1  0  0
   -6.3091  -23.6147   48.5402 H   0  0
   -5.6928  -22.0815   47.8958 H   0  0
   -4.8449  -22.8775   49.2536 H   0  0
   -4.3517  -24.7930   47.7333 H   0  0
   -5.6119  -23.0873   45.5798 H   0  0
   -6.2282  -24.6206   46.2242 H   0  0
   -4.7065  -24.6006   45.2860 H   0  0
   -4.2007  -21.3278   46.4663 H   0  0
   -2.1048  -20.0927   45.9867 H   0  0
    0.0977  -21.2090   46.3145 H   0  0
    0.1975  -23.5386   47.1521 H   0  0
   -0.7962  -23.6945   49.9170 H   0  0
   -2.3156  -26.7549   51.5078 H   0  0
   -1.9030  -27.3677   53.8777 H   0  0
    0.6134  -23.9999   54.3895 H   0  0
    0.2285  -23.2923   52.0345 H   0  0
   -2.8172  -25.8461   46.0074 H   0  0
   -3.7957  -26.0961   47.4382 H   0  0
   -1.7373  -27.8951   46.2038 H   0  0
   -3.2627  -28.3038   47.0292 H   0  0
   -4.1309  -28.8288   48.5215 H   0  0
   -5.2097  -29.6432   50.6040 H   0  0
   -3.2373  -31.7664   54.7487 H   0  0
   -3.3383  -28.2046   54.0772 H   0  0
   -4.0540  -29.6615   55.1980 H   0  0
   -6.0203  -29.6332   53.9791 H   0  0
   -5.3039  -28.1772   52.8570 H   0  0
   -1.3889  -29.5974   52.6088 H   0  0
   -0.3006  -28.7818   50.5189 H   0  0
    0.4326  -27.8710   47.7930 H   0  0
    0.0368  -27.1922   49.3887 H   0  0
    0.3255  -25.2086   48.1973 H   0  0
   -0.1482  -25.9279   46.6649 H   0  0
  1  2  1  0
  2  3  1  0
  2  4  1  0
  4  5  2  0
  4  9  1  0
  5  6  1  0
  6  7  2  0
  7  8  1  0
  8  9  2  0
  9 10  1  0
 10 11  1  0
 10 20  1  0
 10 36  1  0
 11 12  2  0
 11 13  1  0
 13 14  1  0
 14 15  2  0
 14 19  1  0
 15 16  1  0
 16 17  2  0
 17 18  1  0
 18 19  2  0
 20 21  1  0
 21 22  1  0
 22 23  1  0
 22 35  1  0
 23 24  2  0
 23 34  1  0
 24 25  1  0
 25 26  2  0
 26 27  1  0
 26 33  1  0
 27 28  1  0
 27 31  1  0
 27 32  1  0
 28 29  2  0
 28 30  1  0
 31 32  1  0
 33 34  2  0
 35 36  1  0
  1 37  1  0
  1 38  1  0
  1 39  1  0
  2 40  1  0
  3 41  1  0
  3 42  1  0
  3 43  1  0
  5 44  1  0
  6 45  1  0
  7 46  1  0
  8 47  1  0
 13 48  1  0
 15 49  1  0
 16 50  1  0
 18 51  1  0
 19 52  1  0
 20 53  1  0
 20 54  1  0
 21 55  1  0
 21 56  1  0
 24 57  1  0
 25 58  1  0
 30 59  1  0
 31 60  1  0
 31 61  1  0
 32 62  1  0
 32 63  1  0
 33 64  1  0
 34 65  1  0
 35 66  1  0
 35 67  1  0
 36 68  1  0
 36 69  1  0
M  END
> <Name>
Molecule

> <AbsoluteEnergy>
68.3746

> <Clean Energy>
200.853

> <ConfNumber>
24

> <MOL_NUMBER>
4

> <RelativeEnergy>
6.85204

> <POSE_NUMBER>
94

> <LibDockScore>
101.6672

> <HotSpots>
-5.53,-22.92,48.98,A,33,3
-0.93,-23.32,46.98,A,25,8
-3.33,-32.52,54.19,P,48,30

$$$$
Molecule
  SciTegic05072616053D

 69 73  0  0  0  0            999 V2000
   -5.1060  -30.6721   53.0175 C   0  0  0  1  0  0
   -6.0092  -29.8527   52.0770 C   0  0  0  1  0  0
   -6.6515  -30.7353   50.9904 C   0  0  0  1  0  0
   -7.0417  -29.0561   52.8420 C   0  0  0  1  0  0
   -8.0612  -29.7945   53.4829 C   0  0  0  1  0  0
   -9.0703  -29.1579   54.2133 C   0  0  0  1  0  0
   -9.0763  -27.7641   54.3151 C   0  0  0  1  0  0
   -8.0740  -27.0119   53.6899 C   0  0  0  1  0  0
   -7.0348  -27.6267   52.9453 C   0  0  0  1  0  0
   -5.9567  -26.7556   52.2861 C   0  0  0  1  0  0
   -4.5612  -27.3880   52.4225 C   0  0  0  1  0  0
   -3.8447  -27.4463   51.4471 O   0  0  0  1  0  0
   -4.1373  -27.8836   53.6480 N   0  0  0  1  0  0
   -2.8396  -27.8963   54.1484 C   0  0  0  1  0  0
   -2.5107  -28.8035   55.1807 C   0  0  0  1  0  0
   -1.2010  -28.8412   55.6969 C   0  0  0  1  0  0
   -0.2285  -28.0117   55.2250 N   0  0  0  1  0  0
   -0.5226  -27.1213   54.2373 C   0  0  0  1  0  0
   -1.8154  -27.0356   53.6862 C   0  0  0  1  0  0
   -6.3484  -26.4965   50.7854 C   0  0  0  1  0  0
   -5.9368  -25.1213   50.2061 C   0  0  0  1  0  0
   -4.6650  -24.6319   50.8056 N   0  0  0  1  0  0
   -3.5450  -24.3398   50.0331 C   0  0  0  1  0  0
   -3.5628  -24.5263   48.6308 C   0  0  0  1  0  0
   -2.4212  -24.2617   47.8550 C   0  0  0  1  0  0
   -1.2430  -23.7984   48.4671 C   0  0  0  1  0  0
   -0.0016  -23.5376   47.6469 C   0  0  0  1  0  0
    0.9772  -24.7017   47.6855 C   0  0  0  1  0  0
    1.3811  -25.0916   48.7576 O   0  0  0  1  0  0
    1.3630  -25.2657   46.5406 O   0  0  0  1  0  0
    0.5703  -22.1292   47.6012 C   0  0  0  1  0  0
   -0.0980  -22.7036   46.3767 C   0  0  0  1  0  0
   -1.2207  -23.5851   49.8553 C   0  0  0  1  0  0
   -2.3577  -23.8563   50.6320 C   0  0  0  1  0  0
   -4.6741  -24.5014   52.2945 C   0  0  0  1  0  0
   -5.8051  -25.3391   52.9334 C   0  0  0  1  0  0
   -4.3248  -31.1445   52.4220 H   0  0
   -5.7099  -31.4483   53.4876 H   0  0
   -4.6624  -30.0290   53.7776 H   0  0
   -5.3702  -29.1331   51.5653 H   0  0
   -7.2414  -31.5109   51.4788 H   0  0
   -5.8563  -31.2071   50.4133 H   0  0
   -7.2856  -30.1362   50.3369 H   0  0
   -8.0616  -30.8818   53.4068 H   0  0
   -9.8480  -29.7460   54.7006 H   0  0
   -9.8612  -27.2624   54.8812 H   0  0
   -8.0929  -25.9256   53.7777 H   0  0
   -4.8936  -28.3028   54.2782 H   0  0
   -3.2718  -29.4751   55.5780 H   0  0
   -0.9603  -29.5486   56.4904 H   0  0
    0.2602  -26.4604   53.8652 H   0  0
   -2.0274  -26.3067   52.9040 H   0  0
   -7.4284  -26.6037   50.6845 H   0  0
   -5.9012  -27.2776   50.1706 H   0  0
   -6.7266  -24.3968   50.4045 H   0  0
   -5.8118  -25.2099   49.1269 H   0  0
   -4.4730  -24.8795   48.1462 H   0  0
   -2.4491  -24.4160   46.7763 H   0  0
    1.7633  -24.4793   45.9715 H   0  0
    1.6564  -22.1411   47.5099 H   0  0
   -0.0759  -21.4187   48.1166 H   0  0
   -1.1010  -22.2999   46.2388 H   0  0
    0.6314  -23.0238   45.6327 H   0  0
   -0.3160  -23.2072   50.3315 H   0  0
   -2.3258  -23.6926   51.7092 H   0  0
   -4.8109  -23.4536   52.5617 H   0  0
   -3.7147  -24.8364   52.6887 H   0  0
   -5.6011  -25.4545   53.9979 H   0  0
   -6.7464  -24.7993   52.8301 H   0  0
  1  2  1  0
  2  3  1  0
  2  4  1  0
  4  5  2  0
  4  9  1  0
  5  6  1  0
  6  7  2  0
  7  8  1  0
  8  9  2  0
  9 10  1  0
 10 11  1  0
 10 20  1  0
 10 36  1  0
 11 12  2  0
 11 13  1  0
 13 14  1  0
 14 15  2  0
 14 19  1  0
 15 16  1  0
 16 17  2  0
 17 18  1  0
 18 19  2  0
 20 21  1  0
 21 22  1  0
 22 23  1  0
 22 35  1  0
 23 24  2  0
 23 34  1  0
 24 25  1  0
 25 26  2  0
 26 27  1  0
 26 33  1  0
 27 28  1  0
 27 31  1  0
 27 32  1  0
 28 29  2  0
 28 30  1  0
 31 32  1  0
 33 34  2  0
 35 36  1  0
  1 37  1  0
  1 38  1  0
  1 39  1  0
  2 40  1  0
  3 41  1  0
  3 42  1  0
  3 43  1  0
  5 44  1  0
  6 45  1  0
  7 46  1  0
  8 47  1  0
 13 48  1  0
 15 49  1  0
 16 50  1  0
 18 51  1  0
 19 52  1  0
 20 53  1  0
 20 54  1  0
 21 55  1  0
 21 56  1  0
 24 57  1  0
 25 58  1  0
 30 59  1  0
 31 60  1  0
 31 61  1  0
 32 62  1  0
 32 63  1  0
 33 64  1  0
 34 65  1  0
 35 66  1  0
 35 67  1  0
 36 68  1  0
 36 69  1  0
M  END
> <Name>
Molecule

> <AbsoluteEnergy>
63.8568

> <Clean Energy>
200.853

> <ConfNumber>
5

> <MOL_NUMBER>
4

> <RelativeEnergy>
2.3343

> <POSE_NUMBER>
95

> <LibDockScore>
101.1968

> <HotSpots>
-8.73,-28.12,54.38,A,70,7
-1.53,-28.72,56.38,A,78,16
0.27,-22.52,46.78,A,23,32

$$$$
Molecule
  SciTegic05072616053D

 69 73  0  0  0  0            999 V2000
    0.9154  -25.6585   53.0673 C   0  0  0  1  0  0
    0.2862  -24.3377   52.5855 C   0  0  0  1  0  0
    0.5208  -23.1987   53.5977 C   0  0  0  1  0  0
    0.7377  -23.9785   51.1875 C   0  0  0  1  0  0
    2.1308  -23.8493   51.0029 C   0  0  0  1  0  0
    2.6705  -23.4846   49.7662 C   0  0  0  1  0  0
    1.8216  -23.2443   48.6848 C   0  0  0  1  0  0
    0.4358  -23.3875   48.8377 C   0  0  0  1  0  0
   -0.1448  -23.7740   50.0741 C   0  0  0  1  0  0
   -1.6659  -23.9623   50.1665 C   0  0  0  1  0  0
   -1.9940  -25.4181   50.5456 C   0  0  0  1  0  0
   -2.5608  -25.6377   51.5927 O   0  0  0  1  0  0
   -1.6744  -26.4575   49.6846 N   0  0  0  1  0  0
   -1.5613  -27.8122   49.9935 C   0  0  0  1  0  0
   -1.0085  -28.6822   49.0270 C   0  0  0  1  0  0
   -0.9174  -30.0622   49.2853 C   0  0  0  1  0  0
   -1.3518  -30.5931   50.4623 N   0  0  0  1  0  0
   -1.8697  -29.7762   51.4197 C   0  0  0  1  0  0
   -1.9786  -28.3879   51.2208 C   0  0  0  1  0  0
   -2.4312  -23.6540   48.8229 C   0  0  0  1  0  0
   -3.9695  -23.8597   48.8815 C   0  0  0  1  0  0
   -4.4402  -23.8336   50.2945 N   0  0  0  1  0  0
   -5.2295  -24.8247   50.8822 C   0  0  0  1  0  0
   -6.0150  -24.5568   52.0273 C   0  0  0  1  0  0
   -6.6410  -25.6037   52.7261 C   0  0  0  1  0  0
   -6.5047  -26.9296   52.2779 C   0  0  0  1  0  0
   -7.0449  -28.0794   53.0903 C   0  0  0  1  0  0
   -5.9184  -28.9154   53.6900 C   0  0  0  1  0  0
   -6.1084  -29.5246   54.7171 O   0  0  0  1  0  0
   -4.7396  -28.9494   53.0639 O   0  0  0  1  0  0
   -8.3570  -27.9243   53.8425 C   0  0  0  1  0  0
   -8.2945  -28.8031   52.6166 C   0  0  0  1  0  0
   -5.8337  -27.1905   51.0735 C   0  0  0  1  0  0
   -5.2162  -26.1468   50.3746 C   0  0  0  1  0  0
   -3.8257  -22.7242   51.0729 C   0  0  0  1  0  0
   -2.2866  -22.9296   51.1815 C   0  0  0  1  0  0
    0.4720  -25.9259   54.0265 H   0  0
    1.9861  -25.5052   53.2022 H   0  0
    0.7394  -26.4508   52.3397 H   0  0
   -0.7921  -24.4868   52.5291 H   0  0
    1.5946  -23.0648   53.7285 H   0  0
    0.0805  -23.4854   54.5527 H   0  0
    0.0690  -22.2735   53.2400 H   0  0
    2.8000  -24.0379   51.8424 H   0  0
    3.7497  -23.3883   49.6469 H   0  0
    2.2361  -22.9455   47.7220 H   0  0
   -0.2141  -23.1968   47.9837 H   0  0
   -1.4937  -26.1883   48.6649 H   0  0
   -0.6513  -28.2827   48.0778 H   0  0
   -0.4905  -30.7200   48.5282 H   0  0
   -2.2078  -30.2074   52.3620 H   0  0
   -2.3837  -27.7545   52.0099 H   0  0
   -2.0255  -24.2887   48.0351 H   0  0
   -2.2290  -22.6225   48.5345 H   0  0
   -4.4623  -23.0642   48.3225 H   0  0
   -4.2241  -24.8207   48.4345 H   0  0
   -6.1361  -23.5295   52.3711 H   0  0
   -7.2324  -25.3876   53.6159 H   0  0
   -4.4397  -27.9461   52.9871 H   0  0
   -8.8311  -26.9667   53.6271 H   0  0
   -8.3638  -28.5132   54.7597 H   0  0
   -8.2692  -29.8603   52.8806 H   0  0
   -8.7348  -28.3136   51.7479 H   0  0
   -5.7933  -28.2069   50.6818 H   0  0
   -4.7186  -26.3543   49.4273 H   0  0
   -4.2580  -22.7007   52.0732 H   0  0
   -4.0291  -21.7767   50.5738 H   0  0
   -1.7980  -21.9655   51.0405 H   0  0
   -2.0512  -23.2540   52.1951 H   0  0
  1  2  1  0
  2  3  1  0
  2  4  1  0
  4  5  2  0
  4  9  1  0
  5  6  1  0
  6  7  2  0
  7  8  1  0
  8  9  2  0
  9 10  1  0
 10 11  1  0
 10 20  1  0
 10 36  1  0
 11 12  2  0
 11 13  1  0
 13 14  1  0
 14 15  2  0
 14 19  1  0
 15 16  1  0
 16 17  2  0
 17 18  1  0
 18 19  2  0
 20 21  1  0
 21 22  1  0
 22 23  1  0
 22 35  1  0
 23 24  2  0
 23 34  1  0
 24 25  1  0
 25 26  2  0
 26 27  1  0
 26 33  1  0
 27 28  1  0
 27 31  1  0
 27 32  1  0
 28 29  2  0
 28 30  1  0
 31 32  1  0
 33 34  2  0
 35 36  1  0
  1 37  1  0
  1 38  1  0
  1 39  1  0
  2 40  1  0
  3 41  1  0
  3 42  1  0
  3 43  1  0
  5 44  1  0
  6 45  1  0
  7 46  1  0
  8 47  1  0
 13 48  1  0
 15 49  1  0
 16 50  1  0
 18 51  1  0
 19 52  1  0
 20 53  1  0
 20 54  1  0
 21 55  1  0
 21 56  1  0
 24 57  1  0
 25 58  1  0
 30 59  1  0
 31 60  1  0
 31 61  1  0
 32 62  1  0
 32 63  1  0
 33 64  1  0
 34 65  1  0
 35 66  1  0
 35 67  1  0
 36 68  1  0
 36 69  1  0
M  END
> <Name>
Molecule

> <AbsoluteEnergy>
70.4886

> <Clean Energy>
200.853

> <ConfNumber>
36

> <MOL_NUMBER>
4

> <RelativeEnergy>
8.96602

> <POSE_NUMBER>
96

> <LibDockScore>
93.4225

> <HotSpots>
0.47,-23.32,53.78,A,67,3
2.67,-22.92,49.98,A,39,6
-5.93,-24.72,51.19,A,53,24

$$$$
Molecule
  SciTegic05072616053D

 69 73  0  0  0  0            999 V2000
    2.7918  -25.0260   49.3626 C   0  0  0  1  0  0
    1.5460  -24.3672   49.9946 C   0  0  0  1  0  0
    1.9426  -23.2383   50.9667 C   0  0  0  1  0  0
    0.5561  -23.8924   48.9537 C   0  0  0  1  0  0
    1.0737  -23.0453   47.9470 C   0  0  0  1  0  0
    0.2827  -22.6117   46.8784 C   0  0  0  1  0  0
   -1.0470  -23.0250   46.7952 C   0  0  0  1  0  0
   -1.5926  -23.8334   47.7973 C   0  0  0  1  0  0
   -0.8340  -24.2521   48.9259 C   0  0  0  1  0  0
   -1.5321  -25.0662   50.0299 C   0  0  0  1  0  0
   -3.0824  -24.9982   49.9465 C   0  0  0  1  0  0
   -3.7140  -26.0038   49.7181 O   0  0  0  1  0  0
   -3.7435  -23.7916   50.1472 N   0  0  0  1  0  0
   -5.1181  -23.5664   50.1815 C   0  0  0  1  0  0
   -6.0780  -24.5931   50.3518 C   0  0  0  1  0  0
   -7.4469  -24.2759   50.4080 C   0  0  0  1  0  0
   -7.8847  -22.9907   50.2854 N   0  0  0  1  0  0
   -6.9828  -21.9842   50.1114 C   0  0  0  1  0  0
   -5.5991  -22.2421   50.0599 C   0  0  0  1  0  0
   -1.0902  -26.5704   49.9181 C   0  0  0  1  0  0
   -1.0374  -27.3121   51.2753 C   0  0  0  1  0  0
   -2.1029  -26.8129   52.1894 N   0  0  0  1  0  0
   -3.1810  -27.6060   52.5704 C   0  0  0  1  0  0
   -4.4712  -27.0482   52.7146 C   0  0  0  1  0  0
   -5.5752  -27.8581   53.0117 C   0  0  0  1  0  0
   -5.4126  -29.2435   53.1672 C   0  0  0  1  0  0
   -6.6244  -30.1120   53.3937 C   0  0  0  1  0  0
   -7.3403  -30.3975   52.0831 C   0  0  0  1  0  0
   -8.0888  -29.5583   51.6344 O   0  0  0  1  0  0
   -7.1229  -31.5454   51.4437 O   0  0  0  1  0  0
   -7.4695  -29.8951   54.6356 C   0  0  0  1  0  0
   -6.6465  -31.1531   54.5034 C   0  0  0  1  0  0
   -4.1281  -29.8065   53.0880 C   0  0  0  1  0  0
   -3.0199  -28.9934   52.7995 C   0  0  0  1  0  0
   -1.9600  -25.3708   52.5800 C   0  0  0  1  0  0
   -1.2058  -24.5688   51.4877 C   0  0  0  1  0  0
    3.4144  -25.4330   50.1594 H   0  0
    3.3559  -24.2637   48.8253 H   0  0
    2.4937  -25.8209   48.6789 H   0  0
    1.0371  -25.1371   50.5745 H   0  0
    2.5127  -22.4886   50.4181 H   0  0
    2.5712  -23.6579   51.7522 H   0  0
    1.0527  -22.7848   51.4032 H   0  0
    2.1133  -22.7228   48.0051 H   0  0
    0.7022  -21.9554   46.1159 H   0  0
   -1.6610  -22.7177   45.9487 H   0  0
   -2.6312  -24.1527   47.7112 H   0  0
   -3.1220  -22.9328   50.2928 H   0  0
   -5.7556  -25.6306   50.4395 H   0  0
   -8.1738  -25.0751   50.5528 H   0  0
   -7.3393  -20.9591   50.0101 H   0  0
   -4.8973  -21.4189   49.9260 H   0  0
   -0.1043  -26.6154   49.4554 H   0  0
   -1.7837  -27.0932   49.2594 H   0  0
   -0.0633  -27.1517   51.7374 H   0  0
   -1.1781  -28.3800   51.1084 H   0  0
   -4.6094  -25.9738   52.5931 H   0  0
   -6.5631  -27.4110   53.1224 H   0  0
   -7.3527  -32.2897   52.1478 H   0  0
   -8.5252  -30.0828   54.4398 H   0  0
   -7.0056  -29.1805   55.3155 H   0  0
   -5.7430  -31.1086   55.1115 H   0  0
   -7.2628  -32.0108   54.2339 H   0  0
   -3.9913  -30.8756   53.2506 H   0  0
   -2.0248  -29.4357   52.7515 H   0  0
   -1.4091  -25.3047   53.5182 H   0  0
   -2.9499  -24.9379   52.7239 H   0  0
   -1.4743  -23.5158   51.5732 H   0  0
   -0.1333  -24.6566   51.6612 H   0  0
  1  2  1  0
  2  3  1  0
  2  4  1  0
  4  5  2  0
  4  9  1  0
  5  6  1  0
  6  7  2  0
  7  8  1  0
  8  9  2  0
  9 10  1  0
 10 11  1  0
 10 20  1  0
 10 36  1  0
 11 12  2  0
 11 13  1  0
 13 14  1  0
 14 15  2  0
 14 19  1  0
 15 16  1  0
 16 17  2  0
 17 18  1  0
 18 19  2  0
 20 21  1  0
 21 22  1  0
 22 23  1  0
 22 35  1  0
 23 24  2  0
 23 34  1  0
 24 25  1  0
 25 26  2  0
 26 27  1  0
 26 33  1  0
 27 28  1  0
 27 31  1  0
 27 32  1  0
 28 29  2  0
 28 30  1  0
 31 32  1  0
 33 34  2  0
 35 36  1  0
  1 37  1  0
  1 38  1  0
  1 39  1  0
  2 40  1  0
  3 41  1  0
  3 42  1  0
  3 43  1  0
  5 44  1  0
  6 45  1  0
  7 46  1  0
  8 47  1  0
 13 48  1  0
 15 49  1  0
 16 50  1  0
 18 51  1  0
 19 52  1  0
 20 53  1  0
 20 54  1  0
 21 55  1  0
 21 56  1  0
 24 57  1  0
 25 58  1  0
 30 59  1  0
 31 60  1  0
 31 61  1  0
 32 62  1  0
 32 63  1  0
 33 64  1  0
 34 65  1  0
 35 66  1  0
 35 67  1  0
 36 68  1  0
 36 69  1  0
M  END
> <Name>
Molecule

> <AbsoluteEnergy>
70.166

> <Clean Energy>
200.853

> <ConfNumber>
35

> <MOL_NUMBER>
4

> <RelativeEnergy>
8.64344

> <POSE_NUMBER>
97

> <LibDockScore>
93.0161

> <HotSpots>
1.27,-23.52,47.59,A,27,5
-0.93,-23.32,46.98,A,25,7
-7.33,-24.12,50.38,A,44,16

$$$$
Molecule
  SciTegic05072616053D

 69 73  0  0  0  0            999 V2000
   -8.9329  -27.1191   55.2478 C   0  0  0  1  0  0
   -7.9765  -28.2971   54.9815 C   0  0  0  1  0  0
   -7.5742  -29.0119   56.2853 C   0  0  0  1  0  0
   -8.5460  -29.2579   53.9644 C   0  0  0  1  0  0
   -9.8421  -29.7557   54.2294 C   0  0  0  1  0  0
  -10.4711  -30.6479   53.3558 C   0  0  0  1  0  0
   -9.8105  -31.0614   52.1959 C   0  0  0  1  0  0
   -8.5252  -30.5813   51.9143 C   0  0  0  1  0  0
   -7.8572  -29.6752   52.7776 C   0  0  0  1  0  0
   -6.4485  -29.1790   52.4147 C   0  0  0  1  0  0
   -6.3859  -27.6418   52.4290 C   0  0  0  1  0  0
   -5.7211  -27.0912   53.2765 O   0  0  0  1  0  0
   -7.0964  -26.8971   51.4969 N   0  0  0  1  0  0
   -6.8206  -25.5914   51.1031 C   0  0  0  1  0  0
   -7.7554  -24.9021   50.2984 C   0  0  0  1  0  0
   -7.5058  -23.5715   49.9125 C   0  0  0  1  0  0
   -6.3653  -22.9265   50.2895 N   0  0  0  1  0  0
   -5.4398  -23.5774   51.0493 C   0  0  0  1  0  0
   -5.6384  -24.9056   51.4698 C   0  0  0  1  0  0
   -5.9859  -29.6074   50.9752 C   0  0  0  1  0  0
   -4.5674  -29.1226   50.5814 C   0  0  0  1  0  0
   -3.6668  -29.1098   51.7617 N   0  0  0  1  0  0
   -2.6494  -28.1767   51.8865 C   0  0  0  1  0  0
   -2.1249  -27.5079   50.7572 C   0  0  0  1  0  0
   -1.1821  -26.4771   50.9188 C   0  0  0  1  0  0
   -0.7486  -26.1123   52.2079 C   0  0  0  1  0  0
    0.1832  -24.9423   52.4080 C   0  0  0  1  0  0
    0.5233  -24.2634   51.0853 C   0  0  0  1  0  0
    1.6624  -24.2914   50.6823 O   0  0  0  1  0  0
   -0.4388  -23.6577   50.3853 O   0  0  0  1  0  0
    1.2186  -24.9868   53.5223 C   0  0  0  1  0  0
    0.0273  -24.0682   53.6435 C   0  0  0  1  0  0
   -1.2068  -26.8325   53.3236 C   0  0  0  1  0  0
   -2.1429  -27.8626   53.1642 C   0  0  0  1  0  0
   -3.9990  -30.0913   52.8235 C   0  0  0  1  0  0
   -5.4027  -29.8135   53.4102 C   0  0  0  1  0  0
   -8.4352  -26.4131   55.9126 H   0  0
   -9.8245  -27.5028   55.7438 H   0  0
   -9.2043  -26.6283   54.3132 H   0  0
   -7.0643  -27.8818   54.5531 H   0  0
   -8.4781  -29.3784   56.7718 H   0  0
   -7.0889  -28.2886   56.9406 H   0  0
   -6.8984  -29.8407   56.0740 H   0  0
  -10.3618  -29.4376   55.1332 H   0  0
  -11.4715  -31.0190   53.5783 H   0  0
  -10.2951  -31.7570   51.5108 H   0  0
   -8.0236  -30.9135   51.0054 H   0  0
   -7.9371  -27.3733   51.0371 H   0  0
   -8.6697  -25.4006   49.9765 H   0  0
   -8.2389  -23.0464   49.3001 H   0  0
   -4.5259  -23.0579   51.3375 H   0  0
   -4.8832  -25.4050   52.0767 H   0  0
   -6.7004  -29.2224   50.2476 H   0  0
   -6.0142  -30.6949   50.9074 H   0  0
   -4.1563  -29.7893   49.8233 H   0  0
   -4.6315  -28.1161   50.1680 H   0  0
   -2.4524  -27.7922   49.7572 H   0  0
   -0.7863  -25.9597   50.0449 H   0  0
   -0.8545  -22.9598   51.0506 H   0  0
    2.1220  -24.4405   53.2509 H   0  0
    1.1038  -25.8784   54.1387 H   0  0
   -0.7225  -24.4694   54.3254 H   0  0
    0.2951  -23.0322   53.4361 H   0  0
   -0.8323  -26.5888   54.3178 H   0  0
   -2.4820  -28.4251   54.0341 H   0  0
   -3.2574  -30.0262   53.6197 H   0  0
   -3.9774  -31.0968   52.4034 H   0  0
   -5.8089  -30.7503   53.7915 H   0  0
   -5.2933  -29.1502   54.2682 H   0  0
  1  2  1  0
  2  3  1  0
  2  4  1  0
  4  5  2  0
  4  9  1  0
  5  6  1  0
  6  7  2  0
  7  8  1  0
  8  9  2  0
  9 10  1  0
 10 11  1  0
 10 20  1  0
 10 36  1  0
 11 12  2  0
 11 13  1  0
 13 14  1  0
 14 15  2  0
 14 19  1  0
 15 16  1  0
 16 17  2  0
 17 18  1  0
 18 19  2  0
 20 21  1  0
 21 22  1  0
 22 23  1  0
 22 35  1  0
 23 24  2  0
 23 34  1  0
 24 25  1  0
 25 26  2  0
 26 27  1  0
 26 33  1  0
 27 28  1  0
 27 31  1  0
 27 32  1  0
 28 29  2  0
 28 30  1  0
 31 32  1  0
 33 34  2  0
 35 36  1  0
  1 37  1  0
  1 38  1  0
  1 39  1  0
  2 40  1  0
  3 41  1  0
  3 42  1  0
  3 43  1  0
  5 44  1  0
  6 45  1  0
  7 46  1  0
  8 47  1  0
 13 48  1  0
 15 49  1  0
 16 50  1  0
 18 51  1  0
 19 52  1  0
 20 53  1  0
 20 54  1  0
 21 55  1  0
 21 56  1  0
 24 57  1  0
 25 58  1  0
 30 59  1  0
 31 60  1  0
 31 61  1  0
 32 62  1  0
 32 63  1  0
 33 64  1  0
 34 65  1  0
 35 66  1  0
 35 67  1  0
 36 68  1  0
 36 69  1  0
M  END
> <Name>
Molecule

> <AbsoluteEnergy>
65.1741

> <Clean Energy>
200.853

> <ConfNumber>
10

> <MOL_NUMBER>
4

> <RelativeEnergy>
3.65154

> <POSE_NUMBER>
98

> <LibDockScore>
90.5465

> <HotSpots>
-10.93,-30.92,53.98,A,68,6
-8.13,-23.72,49.98,P,34,17
0.87,-24.32,52.78,A,63,31

$$$$
Molecule
  SciTegic05072616053D

 69 73  0  0  0  0            999 V2000
   -5.2352  -31.6886   53.6577 C   0  0  0  1  0  0
   -6.4347  -31.0889   52.9076 C   0  0  0  1  0  0
   -6.1940  -30.8884   51.3972 C   0  0  0  1  0  0
   -7.1972  -29.9267   53.5312 C   0  0  0  1  0  0
   -8.3354  -30.3408   54.2696 C   0  0  0  1  0  0
   -9.1905  -29.4312   54.8950 C   0  0  0  1  0  0
   -8.9316  -28.0677   54.7914 C   0  0  0  1  0  0
   -7.8160  -27.6236   54.0754 C   0  0  0  1  0  0
   -6.9035  -28.5133   53.4407 C   0  0  0  1  0  0
   -5.6894  -27.8902   52.7162 C   0  0  0  1  0  0
   -4.4084  -28.7173   52.8639 C   0  0  0  1  0  0
   -3.8535  -29.1119   51.8612 O   0  0  0  1  0  0
   -3.8741  -28.9914   54.1161 N   0  0  0  1  0  0
   -2.6210  -28.5824   54.5504 C   0  0  0  1  0  0
   -1.8352  -27.6736   53.8032 C   0  0  0  1  0  0
   -0.5723  -27.2815   54.2796 C   0  0  0  1  0  0
   -0.0808  -27.7560   55.4587 N   0  0  0  1  0  0
   -0.8267  -28.6239   56.2021 C   0  0  0  1  0  0
   -2.1004  -29.0516   55.7768 C   0  0  0  1  0  0
   -5.2623  -26.4968   53.2801 C   0  0  0  1  0  0
   -3.9941  -25.9067   52.6355 C   0  0  0  1  0  0
   -3.9133  -26.0541   51.1498 N   0  0  0  1  0  0
   -2.8147  -25.5368   50.4532 C   0  0  0  1  0  0
   -1.8692  -24.7025   51.0979 C   0  0  0  1  0  0
   -0.7852  -24.1562   50.3897 C   0  0  0  1  0  0
   -0.6140  -24.4406   49.0243 C   0  0  0  1  0  0
    0.5366  -23.8297   48.2488 C   0  0  0  1  0  0
    0.1101  -22.6953   47.3049 C   0  0  0  1  0  0
   -1.0510  -22.3488   47.2854 O   0  0  0  1  0  0
    1.0054  -22.0951   46.5131 O   0  0  0  1  0  0
    1.8999  -23.7359   48.9214 C   0  0  0  1  0  0
    1.6729  -24.7519   47.8279 C   0  0  0  1  0  0
   -1.5254  -25.2923   48.3787 C   0  0  0  1  0  0
   -2.6138  -25.8340   49.0839 C   0  0  0  1  0  0
   -4.9946  -26.7791   50.4060 C   0  0  0  1  0  0
   -6.0568  -27.5256   51.2527 C   0  0  0  1  0  0
   -4.3874  -31.0204   53.5066 H   0  0
   -5.0041  -32.6468   53.1924 H   0  0
   -5.4483  -31.8129   54.7194 H   0  0
   -7.1438  -31.9060   53.0404 H   0  0
   -5.9453  -31.8613   50.9733 H   0  0
   -5.3286  -30.2348   51.2875 H   0  0
   -7.0685  -30.4619   50.9058 H   0  0
   -8.5500  -31.4063   54.3517 H   0  0
  -10.0530  -29.7858   55.4593 H   0  0
   -9.5972  -27.3476   55.2675 H   0  0
   -7.6373  -26.5510   53.9999 H   0  0
   -4.4729  -29.5601   54.7965 H   0  0
   -2.2089  -27.2778   52.8588 H   0  0
    0.0261  -26.5836   53.6940 H   0  0
   -0.4282  -28.9948   57.1464 H   0  0
   -2.6805  -29.7406   56.3907 H   0  0
   -5.0979  -26.5876   54.3538 H   0  0
   -6.0843  -25.7949   53.1394 H   0  0
   -3.1207  -26.3844   53.0795 H   0  0
   -3.9374  -24.8466   52.8827 H   0  0
   -1.9839  -24.4808   52.1589 H   0  0
   -0.0737  -23.5087   50.9021 H   0  0
    1.4325  -22.8803   45.9622 H   0  0
    1.8914  -24.1983   49.9084 H   0  0
    2.4644  -22.8760   48.5610 H   0  0
    2.1173  -24.4340   46.8847 H   0  0
    1.5427  -25.7558   48.2319 H   0  0
   -1.3878  -25.5345   47.3249 H   0  0
   -3.3133  -26.4925   48.5689 H   0  0
   -5.5086  -26.0615   49.7664 H   0  0
   -4.5249  -27.4979   49.7345 H   0  0
   -6.3240  -28.4439   50.7298 H   0  0
   -6.9640  -26.9215   51.2687 H   0  0
  1  2  1  0
  2  3  1  0
  2  4  1  0
  4  5  2  0
  4  9  1  0
  5  6  1  0
  6  7  2  0
  7  8  1  0
  8  9  2  0
  9 10  1  0
 10 11  1  0
 10 20  1  0
 10 36  1  0
 11 12  2  0
 11 13  1  0
 13 14  1  0
 14 15  2  0
 14 19  1  0
 15 16  1  0
 16 17  2  0
 17 18  1  0
 18 19  2  0
 20 21  1  0
 21 22  1  0
 22 23  1  0
 22 35  1  0
 23 24  2  0
 23 34  1  0
 24 25  1  0
 25 26  2  0
 26 27  1  0
 26 33  1  0
 27 28  1  0
 27 31  1  0
 27 32  1  0
 28 29  2  0
 28 30  1  0
 31 32  1  0
 33 34  2  0
 35 36  1  0
  1 37  1  0
  1 38  1  0
  1 39  1  0
  2 40  1  0
  3 41  1  0
  3 42  1  0
  3 43  1  0
  5 44  1  0
  6 45  1  0
  7 46  1  0
  8 47  1  0
 13 48  1  0
 15 49  1  0
 16 50  1  0
 18 51  1  0
 19 52  1  0
 20 53  1  0
 20 54  1  0
 21 55  1  0
 21 56  1  0
 24 57  1  0
 25 58  1  0
 30 59  1  0
 31 60  1  0
 31 61  1  0
 32 62  1  0
 32 63  1  0
 33 64  1  0
 34 65  1  0
 35 66  1  0
 35 67  1  0
 36 68  1  0
 36 69  1  0
M  END
> <Name>
Molecule

> <AbsoluteEnergy>
78.8894

> <Clean Energy>
200.853

> <ConfNumber>
87

> <MOL_NUMBER>
4

> <RelativeEnergy>
17.3668

> <POSE_NUMBER>
99

> <LibDockScore>
85.1837

> <HotSpots>
-8.73,-28.12,54.38,A,70,7
-1.53,-28.72,56.38,A,78,18
1.27,-23.52,47.59,A,27,31

$$$$
Molecule
  SciTegic05072616053D

 71 75  0  0  0  0            999 V2000
   -3.3712  -22.4802   46.4412 C   0  0  0  1  0  0
   -3.7427  -23.7784   47.2106 C   0  0  0  1  0  0
   -4.6712  -24.6864   46.3639 C   0  0  0  1  0  0
   -4.3567  -23.4621   48.5622 C   0  0  0  1  0  0
   -5.5998  -22.7847   48.5460 C   0  0  0  1  0  0
   -6.2824  -22.4660   49.7325 C   0  0  0  1  0  0
   -5.7179  -22.8111   50.9704 C   0  0  0  1  0  0
   -4.4707  -23.4596   51.0098 C   0  0  0  1  0  0
   -3.7572  -23.8112   49.8252 C   0  0  0  1  0  0
   -2.4290  -24.5758   49.9215 C   0  0  0  1  0  0
   -1.3215  -23.8988   49.1049 C   0  0  0  1  0  0
   -1.4744  -22.7975   48.6178 O   0  0  0  1  0  0
   -0.1289  -24.5730   48.9086 N   0  0  0  1  0  0
    1.0491  -23.9851   48.1977 C   0  0  0  1  0  0
    1.5784  -22.7496   48.7846 N   0  0  0  1  0  0
    2.4274  -23.1544   49.9051 C   0  0  0  1  0  0
    2.8687  -24.5719   49.5642 C   0  0  0  1  0  0
    2.2102  -24.8727   48.2883 N   0  0  0  1  0  0
   -1.8168  -24.6308   51.3682 C   0  0  0  1  0  0
   -2.4242  -25.7078   52.2981 C   0  0  0  1  0  0
   -2.3538  -27.0697   51.6904 N   0  0  0  1  0  0
   -2.6479  -28.2191   52.4282 C   0  0  0  1  0  0
   -2.2957  -28.3352   53.7995 C   0  0  0  1  0  0
   -2.7624  -29.4222   54.5652 C   0  0  0  1  0  0
   -3.5758  -30.3950   53.9753 C   0  0  0  1  0  0
   -4.2563  -31.4096   54.8530 C   0  0  0  1  0  0
   -4.8879  -30.6460   56.0160 C   0  0  0  1  0  0
   -4.3279  -30.6266   57.0900 O   0  0  0  1  0  0
   -6.0310  -29.9804   55.7854 O   0  0  0  1  0  0
   -3.6783  -32.7961   55.0540 C   0  0  0  1  0  0
   -4.9495  -32.6300   54.2757 C   0  0  0  1  0  0
   -3.7941  -30.3821   52.5852 C   0  0  0  1  0  0
   -3.3309  -29.2994   51.8167 C   0  0  0  1  0  0
   -1.9930  -27.1387   50.2503 C   0  0  0  1  0  0
   -2.7404  -26.0450   49.4535 C   0  0  0  1  0  0
   -4.2876  -21.9413   46.2008 H   0  0
   -2.8668  -22.7545   45.5147 H   0  0
   -2.7189  -21.8538   47.0497 H   0  0
   -2.8208  -24.3308   47.3924 H   0  0
   -4.1579  -24.9456   45.4379 H   0  0
   -5.5788  -24.1324   46.1240 H   0  0
   -4.9220  -25.5914   46.9172 H   0  0
   -6.0387  -22.5031   47.5888 H   0  0
   -7.2439  -21.9542   49.6917 H   0  0
   -6.2435  -22.5777   51.8963 H   0  0
   -4.0340  -23.7020   51.9786 H   0  0
   -0.0446  -25.5705   49.2864 H   0  0
    0.6568  -23.8174   47.1947 H   0  0
    0.7737  -22.1405   49.1401 H   0  0
    3.2962  -22.4997   49.9734 H   0  0
    1.8528  -23.1556   50.8314 H   0  0
    3.9515  -24.6072   49.4442 H   0  0
    2.5285  -25.2651   50.3335 H   0  0
    1.8894  -25.8934   48.2771 H   0  0
   -1.9421  -23.6555   51.8385 H   0  0
   -0.7442  -24.8071   51.2867 H   0  0
   -3.4666  -25.4612   52.4997 H   0  0
   -1.8821  -25.7111   53.2437 H   0  0
   -1.6610  -27.5793   54.2620 H   0  0
   -2.4895  -29.5048   55.6172 H   0  0
   -6.7056  -30.6968   55.4191 H   0  0
   -3.8672  -33.1665   56.0616 H   0  0
   -2.8242  -32.9719   54.3999 H   0  0
   -4.7801  -32.7159   53.2024 H   0  0
   -5.8233  -32.9089   54.8647 H   0  0
   -4.3200  -31.2079   52.1061 H   0  0
   -3.4990  -29.2912   50.7398 H   0  0
   -2.2621  -28.1188   49.8564 H   0  0
   -0.9183  -26.9941   50.1402 H   0  0
   -2.4804  -26.1414   48.3994 H   0  0
   -3.8127  -26.2211   49.5392 H   0  0
  1  2  1  0
  2  3  1  0
  2  4  1  0
  4  5  2  0
  4  9  1  0
  5  6  1  0
  6  7  2  0
  7  8  1  0
  8  9  2  0
  9 10  1  0
 10 11  1  0
 10 19  1  0
 10 35  1  0
 11 12  2  0
 11 13  1  0
 13 14  1  0
 14 15  1  0
 14 18  1  0
 15 16  1  0
 16 17  1  0
 17 18  1  0
 19 20  1  0
 20 21  1  0
 21 22  1  0
 21 34  1  0
 22 23  2  0
 22 33  1  0
 23 24  1  0
 24 25  2  0
 25 26  1  0
 25 32  1  0
 26 27  1  0
 26 30  1  0
 26 31  1  0
 27 28  2  0
 27 29  1  0
 30 31  1  0
 32 33  2  0
 34 35  1  0
  1 36  1  0
  1 37  1  0
  1 38  1  0
  2 39  1  0
  3 40  1  0
  3 41  1  0
  3 42  1  0
  5 43  1  0
  6 44  1  0
  7 45  1  0
  8 46  1  0
 13 47  1  0
 14 48  1  0
 15 49  1  0
 16 50  1  0
 16 51  1  0
 17 52  1  0
 17 53  1  0
 18 54  1  0
 19 55  1  0
 19 56  1  0
 20 57  1  0
 20 58  1  0
 23 59  1  0
 24 60  1  0
 29 61  1  0
 30 62  1  0
 30 63  1  0
 31 64  1  0
 31 65  1  0
 32 66  1  0
 33 67  1  0
 34 68  1  0
 34 69  1  0
 35 70  1  0
 35 71  1  0
M  END
> <Name>
Molecule

> <AbsoluteEnergy>
62.488

> <Clean Energy>
225.967

> <ConfNumber>
76

> <MOL_NUMBER>
5

> <RelativeEnergy>
14.1859

> <POSE_NUMBER>
1

> <LibDockScore>
140.7661

> <HotSpots>
-3.53,-22.32,46.59,A,20,1
2.67,-23.92,48.98,A,32,16
-4.13,-31.12,56.59,A,79,30

$$$$
Molecule
  SciTegic05072616053D

 71 75  0  0  0  0            999 V2000
   -2.7323  -25.5096   46.9509 C   0  0  0  1  0  0
   -2.3026  -24.0944   47.3913 C   0  0  0  1  0  0
   -0.8805  -23.6670   46.9798 C   0  0  0  1  0  0
   -2.7846  -23.7195   48.7852 C   0  0  0  1  0  0
   -3.7607  -22.6916   48.7861 C   0  0  0  1  0  0
   -4.2832  -22.1624   49.9674 C   0  0  0  1  0  0
   -3.8359  -22.6506   51.1915 C   0  0  0  1  0  0
   -2.8910  -23.6804   51.2253 C   0  0  0  1  0  0
   -2.3618  -24.2789   50.0483 C   0  0  0  1  0  0
   -1.3776  -25.4568   50.2321 C   0  0  0  1  0  0
   -0.0297  -25.1771   49.5588 C   0  0  0  1  0  0
    0.4028  -25.9409   48.7250 O   0  0  0  1  0  0
    0.7117  -24.0632   49.8963 N   0  0  0  1  0  0
    2.0624  -23.8426   49.3278 C   0  0  0  1  0  0
    2.5833  -22.5311   49.7104 N   0  0  0  1  0  0
    4.0217  -22.6971   49.7854 C   0  0  0  1  0  0
    4.2012  -24.1203   50.2799 C   0  0  0  1  0  0
    3.0077  -24.8377   49.8458 N   0  0  0  1  0  0
   -1.9717  -26.8175   49.7665 C   0  0  0  1  0  0
   -3.2049  -27.2739   50.5661 C   0  0  0  1  0  0
   -2.8794  -27.4126   52.0140 N   0  0  0  1  0  0
   -3.2419  -28.5427   52.7462 C   0  0  0  1  0  0
   -4.1600  -29.4764   52.2118 C   0  0  0  1  0  0
   -4.5338  -30.6173   52.9406 C   0  0  0  1  0  0
   -4.0017  -30.8447   54.2213 C   0  0  0  1  0  0
   -4.4052  -32.0692   55.0074 C   0  0  0  1  0  0
   -3.8107  -33.3508   54.4475 C   0  0  0  1  0  0
   -3.9850  -33.6204   53.2808 O   0  0  0  1  0  0
   -3.1118  -34.1456   55.2571 O   0  0  0  1  0  0
   -5.7892  -32.1334   55.6354 C   0  0  0  1  0  0
   -4.5751  -31.9602   56.5147 C   0  0  0  1  0  0
   -3.0880  -29.9256   54.7644 C   0  0  0  1  0  0
   -2.7080  -28.7884   54.0328 C   0  0  0  1  0  0
   -2.1561  -26.2567   52.6195 C   0  0  0  1  0  0
   -0.9956  -25.7621   51.7247 C   0  0  0  1  0  0
   -2.0034  -26.2025   47.3712 H   0  0
   -2.6378  -25.5414   45.8655 H   0  0
   -3.7454  -25.7536   47.2706 H   0  0
   -2.8715  -23.4116   46.7602 H   0  0
   -0.8327  -23.7452   45.8937 H   0  0
   -0.1983  -24.4064   47.3993 H   0  0
   -0.6356  -22.6604   47.3186 H   0  0
   -4.1152  -22.3012   47.8322 H   0  0
   -5.0348  -21.3738   49.9314 H   0  0
   -4.2211  -22.2314   52.1210 H   0  0
   -2.5452  -24.0399   52.1945 H   0  0
    0.3048  -23.3472   50.5795 H   0  0
    1.9656  -23.9183   48.2448 H   0  0
    2.3369  -21.8066   48.9625 H   0  0
    4.4465  -21.9954   50.5032 H   0  0
    4.4664  -22.5857   48.7965 H   0  0
    5.0879  -24.5628   49.8260 H   0  0
    4.2677  -24.1315   51.3678 H   0  0
    2.5726  -25.3515   50.6774 H   0  0
   -2.2458  -26.7396   48.7144 H   0  0
   -1.2006  -27.5839   49.8449 H   0  0
   -4.0030  -26.5412   50.4463 H   0  0
   -3.5488  -28.2343   50.1822 H   0  0
   -4.5830  -29.3084   51.2214 H   0  0
   -5.2391  -31.3289   52.5114 H   0  0
   -3.7625  -34.3690   56.0503 H   0  0
   -6.1669  -33.1554   55.6677 H   0  0
   -6.3301  -31.1958   55.5067 H   0  0
   -4.4691  -30.9304   56.8559 H   0  0
   -4.3049  -32.8899   57.0155 H   0  0
   -2.6724  -30.0959   55.7576 H   0  0
   -1.9928  -28.0866   54.4618 H   0  0
   -1.7565  -26.5537   53.5892 H   0  0
   -2.8594  -25.4387   52.7756 H   0  0
   -0.5761  -24.8596   52.1692 H   0  0
   -0.2057  -26.5132   51.7352 H   0  0
  1  2  1  0
  2  3  1  0
  2  4  1  0
  4  5  2  0
  4  9  1  0
  5  6  1  0
  6  7  2  0
  7  8  1  0
  8  9  2  0
  9 10  1  0
 10 11  1  0
 10 19  1  0
 10 35  1  0
 11 12  2  0
 11 13  1  0
 13 14  1  0
 14 15  1  0
 14 18  1  0
 15 16  1  0
 16 17  1  0
 17 18  1  0
 19 20  1  0
 20 21  1  0
 21 22  1  0
 21 34  1  0
 22 23  2  0
 22 33  1  0
 23 24  1  0
 24 25  2  0
 25 26  1  0
 25 32  1  0
 26 27  1  0
 26 30  1  0
 26 31  1  0
 27 28  2  0
 27 29  1  0
 30 31  1  0
 32 33  2  0
 34 35  1  0
  1 36  1  0
  1 37  1  0
  1 38  1  0
  2 39  1  0
  3 40  1  0
  3 41  1  0
  3 42  1  0
  5 43  1  0
  6 44  1  0
  7 45  1  0
  8 46  1  0
 13 47  1  0
 14 48  1  0
 15 49  1  0
 16 50  1  0
 16 51  1  0
 17 52  1  0
 17 53  1  0
 18 54  1  0
 19 55  1  0
 19 56  1  0
 20 57  1  0
 20 58  1  0
 23 59  1  0
 24 60  1  0
 29 61  1  0
 30 62  1  0
 30 63  1  0
 31 64  1  0
 31 65  1  0
 32 66  1  0
 33 67  1  0
 34 68  1  0
 34 69  1  0
 35 70  1  0
 35 71  1  0
M  END
> <Name>
Molecule

> <AbsoluteEnergy>
60.3882

> <Clean Energy>
225.967

> <ConfNumber>
62

> <MOL_NUMBER>
5

> <RelativeEnergy>
12.086

> <POSE_NUMBER>
2

> <LibDockScore>
138.4835

> <HotSpots>
-3.33,-21.92,50.38,A,47,6
4.67,-22.92,49.98,A,40,16
-3.33,-33.72,54.98,P,58,29

$$$$
Molecule
  SciTegic05072616053D

 71 75  0  0  0  0            999 V2000
    0.4691  -25.5844   47.0288 C   0  0  0  1  0  0
   -0.2104  -24.6771   48.0724 C   0  0  0  1  0  0
   -0.5641  -23.3016   47.4753 C   0  0  0  1  0  0
    0.6173  -24.5475   49.3311 C   0  0  0  1  0  0
    1.9384  -24.0736   49.1659 C   0  0  0  1  0  0
    2.7891  -23.8924   50.2609 C   0  0  0  1  0  0
    2.3302  -24.1814   51.5474 C   0  0  0  1  0  0
    1.0273  -24.6600   51.7346 C   0  0  0  1  0  0
    0.1406  -24.8693   50.6450 C   0  0  0  1  0  0
   -1.2696  -25.4219   50.9086 C   0  0  0  1  0  0
   -2.3430  -24.4738   50.3559 C   0  0  0  1  0  0
   -2.9504  -24.7586   49.3484 O   0  0  0  1  0  0
   -2.6256  -23.2898   51.0101 N   0  0  0  1  0  0
   -3.9319  -22.5894   50.8916 C   0  0  0  1  0  0
   -5.0394  -23.3947   51.4163 N   0  0  0  1  0  0
   -6.1834  -23.1538   50.5454 C   0  0  0  1  0  0
   -5.7284  -22.0987   49.5494 C   0  0  0  1  0  0
   -4.2815  -22.2184   49.5160 N   0  0  0  1  0  0
   -1.5963  -25.5869   52.4311 C   0  0  0  1  0  0
   -2.9622  -26.2400   52.6990 C   0  0  0  1  0  0
   -3.0218  -27.5915   52.0774 N   0  0  0  1  0  0
   -3.3619  -28.7389   52.7923 C   0  0  0  1  0  0
   -4.1253  -29.7652   52.1884 C   0  0  0  1  0  0
   -4.4668  -30.9246   52.9045 C   0  0  0  1  0  0
   -4.0565  -31.0779   54.2403 C   0  0  0  1  0  0
   -4.4190  -32.3233   55.0135 C   0  0  0  1  0  0
   -3.6501  -33.5488   54.5484 C   0  0  0  1  0  0
   -2.8269  -34.0422   55.2850 O   0  0  0  1  0  0
   -3.9022  -34.0484   53.3396 O   0  0  0  1  0  0
   -5.8480  -32.5178   55.4968 C   0  0  0  1  0  0
   -4.7576  -32.2050   56.4919 C   0  0  0  1  0  0
   -3.3006  -30.0642   54.8531 C   0  0  0  1  0  0
   -2.9524  -28.9088   54.1352 C   0  0  0  1  0  0
   -2.6851  -27.6250   50.6268 C   0  0  0  1  0  0
   -1.3696  -26.8713   50.3275 C   0  0  0  1  0  0
    1.3776  -25.0942   46.6790 H   0  0
   -0.2098  -25.7163   46.1863 H   0  0
    0.7119  -26.5519   47.4682 H   0  0
   -1.1459  -25.1575   48.3589 H   0  0
   -1.2352  -23.4505   46.6294 H   0  0
    0.3522  -22.8285   47.1222 H   0  0
   -1.0433  -22.6739   48.2266 H   0  0
    2.3018  -23.8446   48.1641 H   0  0
    3.8052  -23.5274   50.1108 H   0  0
    2.9857  -24.0346   52.4058 H   0  0
    0.6839  -24.8782   52.7458 H   0  0
   -1.8692  -22.8569   51.6308 H   0  0
   -3.7961  -21.6834   51.4822 H   0  0
   -4.7775  -24.4319   51.3925 H   0  0
   -7.0238  -22.7759   51.1277 H   0  0
   -6.4509  -24.0699   50.0189 H   0  0
   -6.1447  -22.3109   48.5646 H   0  0
   -6.0141  -21.1065   49.8987 H   0  0
   -3.8386  -21.2778   49.2629 H   0  0
   -1.5764  -24.6060   52.9060 H   0  0
   -0.8190  -26.1938   52.8955 H   0  0
   -3.7509  -25.6155   52.2794 H   0  0
   -3.1145  -26.3310   53.7745 H   0  0
   -4.4527  -29.6551   51.1546 H   0  0
   -5.0519  -31.7080   52.4227 H   0  0
   -3.7422  -33.2514   52.6751 H   0  0
   -6.1227  -33.5724   55.5192 H   0  0
   -6.4635  -31.6433   55.2860 H   0  0
   -4.7919  -31.1637   56.8124 H   0  0
   -4.4500  -33.0929   57.0444 H   0  0
   -2.9833  -30.1752   55.8900 H   0  0
   -2.3590  -28.1330   54.6191 H   0  0
   -2.5834  -28.6622   50.3074 H   0  0
   -3.4959  -27.1672   50.0601 H   0  0
   -1.2379  -26.8217   49.2466 H   0  0
   -0.5383  -27.4600   50.7156 H   0  0
  1  2  1  0
  2  3  1  0
  2  4  1  0
  4  5  2  0
  4  9  1  0
  5  6  1  0
  6  7  2  0
  7  8  1  0
  8  9  2  0
  9 10  1  0
 10 11  1  0
 10 19  1  0
 10 35  1  0
 11 12  2  0
 11 13  1  0
 13 14  1  0
 14 15  1  0
 14 18  1  0
 15 16  1  0
 16 17  1  0
 17 18  1  0
 19 20  1  0
 20 21  1  0
 21 22  1  0
 21 34  1  0
 22 23  2  0
 22 33  1  0
 23 24  1  0
 24 25  2  0
 25 26  1  0
 25 32  1  0
 26 27  1  0
 26 30  1  0
 26 31  1  0
 27 28  2  0
 27 29  1  0
 30 31  1  0
 32 33  2  0
 34 35  1  0
  1 36  1  0
  1 37  1  0
  1 38  1  0
  2 39  1  0
  3 40  1  0
  3 41  1  0
  3 42  1  0
  5 43  1  0
  6 44  1  0
  7 45  1  0
  8 46  1  0
 13 47  1  0
 14 48  1  0
 15 49  1  0
 16 50  1  0
 16 51  1  0
 17 52  1  0
 17 53  1  0
 18 54  1  0
 19 55  1  0
 19 56  1  0
 20 57  1  0
 20 58  1  0
 23 59  1  0
 24 60  1  0
 29 61  1  0
 30 62  1  0
 30 63  1  0
 31 64  1  0
 31 65  1  0
 32 66  1  0
 33 67  1  0
 34 68  1  0
 34 69  1  0
 35 70  1  0
 35 71  1  0
M  END
> <Name>
Molecule

> <AbsoluteEnergy>
49.0862

> <Clean Energy>
225.967

> <ConfNumber>
2

> <MOL_NUMBER>
5

> <RelativeEnergy>
0.7841

> <POSE_NUMBER>
3

> <LibDockScore>
137.804

> <HotSpots>
-0.93,-23.32,46.98,A,25,3
1.67,-24.32,50.98,A,50,7
-3.33,-33.72,54.98,P,58,28

$$$$
Molecule
  SciTegic05072616053D

 71 75  0  0  0  0            999 V2000
   -2.8384  -22.6011   46.7314 C   0  0  0  1  0  0
   -3.5512  -23.8241   47.3426 C   0  0  0  1  0  0
   -4.3860  -24.5733   46.2877 C   0  0  0  1  0  0
   -4.3800  -23.4560   48.5542 C   0  0  0  1  0  0
   -5.4962  -22.6196   48.3260 C   0  0  0  1  0  0
   -6.3241  -22.2087   49.3757 C   0  0  0  1  0  0
   -6.0502  -22.6319   50.6779 C   0  0  0  1  0  0
   -4.9527  -23.4669   50.9271 C   0  0  0  1  0  0
   -4.0924  -23.9053   49.8863 C   0  0  0  1  0  0
   -2.9021  -24.8316   50.2000 C   0  0  0  1  0  0
   -1.6037  -24.2202   49.6410 C   0  0  0  1  0  0
   -1.5014  -23.0199   49.5093 O   0  0  0  1  0  0
   -0.5418  -25.0187   49.2693 N   0  0  0  1  0  0
    0.6752  -24.4366   48.6369 C   0  0  0  1  0  0
    1.6683  -25.4900   48.3939 N   0  0  0  1  0  0
    2.1745  -25.3004   47.0447 C   0  0  0  1  0  0
    1.0333  -24.6239   46.3145 C   0  0  0  1  0  0
    0.3940  -23.8090   47.3336 N   0  0  0  1  0  0
   -2.6132  -24.9961   51.7309 C   0  0  0  1  0  0
   -3.5232  -26.0206   52.4422 C   0  0  0  1  0  0
   -3.3188  -27.3927   51.8939 N   0  0  0  1  0  0
   -3.5987  -28.5383   52.6473 C   0  0  0  1  0  0
   -4.4374  -28.4735   53.7861 C   0  0  0  1  0  0
   -4.7121  -29.6218   54.5492 C   0  0  0  1  0  0
   -4.1566  -30.8620   54.1899 C   0  0  0  1  0  0
   -4.4487  -32.0972   55.0107 C   0  0  0  1  0  0
   -3.9093  -33.3701   54.3791 C   0  0  0  1  0  0
   -4.2816  -33.6813   53.2710 O   0  0  0  1  0  0
   -3.0400  -34.1115   55.0636 O   0  0  0  1  0  0
   -5.7475  -32.1831   55.7987 C   0  0  0  1  0  0
   -4.4402  -31.9985   56.5289 C   0  0  0  1  0  0
   -3.3275  -30.9442   53.0581 C   0  0  0  1  0  0
   -3.0498  -29.7953   52.2971 C   0  0  0  1  0  0
   -2.7825  -27.4643   50.5005 C   0  0  0  1  0  0
   -3.2290  -26.2636   49.6321 C   0  0  0  1  0  0
   -3.5909  -21.9297   46.3177 H   0  0
   -2.1874  -22.9430   45.9268 H   0  0
   -2.2532  -22.0839   47.4917 H   0  0
   -2.7743  -24.5049   47.6904 H   0  0
   -3.7232  -24.9002   45.4865 H   0  0
   -5.1267  -23.8869   45.8774 H   0  0
   -4.8819  -25.4336   46.7372 H   0  0
   -5.7163  -22.2880   47.3113 H   0  0
   -7.1787  -21.5615   49.1783 H   0  0
   -6.6901  -22.3128   51.5006 H   0  0
   -4.7539  -23.7890   51.9493 H   0  0
   -0.5931  -26.0741   49.4381 H   0  0
    1.0423  -23.6800   49.3304 H   0  0
    2.4700  -25.4010   49.0969 H   0  0
    2.3940  -26.2638   46.5846 H   0  0
    3.0484  -24.6491   47.0581 H   0  0
    1.4218  -23.9916   45.5161 H   0  0
    0.3344  -25.3700   45.9365 H   0  0
   -0.6623  -23.7824   47.1652 H   0  0
   -2.7300  -24.0277   52.2174 H   0  0
   -1.5748  -25.3005   51.8616 H   0  0
   -4.5656  -25.7323   52.3065 H   0  0
   -3.2967  -26.0234   53.5084 H   0  0
   -4.8767  -27.5189   54.0756 H   0  0
   -5.3589  -29.5501   55.4236 H   0  0
   -3.5245  -34.3373   55.9673 H   0  0
   -6.1059  -33.2101   55.8684 H   0  0
   -6.3116  -31.2522   55.7414 H   0  0
   -4.3072  -30.9692   56.8621 H   0  0
   -4.1006  -32.9272   56.9876 H   0  0
   -2.8978  -31.9033   52.7690 H   0  0
   -2.4019  -29.8735   51.4240 H   0  0
   -3.1259  -28.3875   50.0337 H   0  0
   -1.6935  -27.4891   50.5399 H   0  0
   -2.7678  -26.3602   48.6492 H   0  0
   -4.3051  -26.3352   49.4737 H   0  0
  1  2  1  0
  2  3  1  0
  2  4  1  0
  4  5  2  0
  4  9  1  0
  5  6  1  0
  6  7  2  0
  7  8  1  0
  8  9  2  0
  9 10  1  0
 10 11  1  0
 10 19  1  0
 10 35  1  0
 11 12  2  0
 11 13  1  0
 13 14  1  0
 14 15  1  0
 14 18  1  0
 15 16  1  0
 16 17  1  0
 17 18  1  0
 19 20  1  0
 20 21  1  0
 21 22  1  0
 21 34  1  0
 22 23  2  0
 22 33  1  0
 23 24  1  0
 24 25  2  0
 25 26  1  0
 25 32  1  0
 26 27  1  0
 26 30  1  0
 26 31  1  0
 27 28  2  0
 27 29  1  0
 30 31  1  0
 32 33  2  0
 34 35  1  0
  1 36  1  0
  1 37  1  0
  1 38  1  0
  2 39  1  0
  3 40  1  0
  3 41  1  0
  3 42  1  0
  5 43  1  0
  6 44  1  0
  7 45  1  0
  8 46  1  0
 13 47  1  0
 14 48  1  0
 15 49  1  0
 16 50  1  0
 16 51  1  0
 17 52  1  0
 17 53  1  0
 18 54  1  0
 19 55  1  0
 19 56  1  0
 20 57  1  0
 20 58  1  0
 23 59  1  0
 24 60  1  0
 29 61  1  0
 30 62  1  0
 30 63  1  0
 31 64  1  0
 31 65  1  0
 32 66  1  0
 33 67  1  0
 34 68  1  0
 34 69  1  0
 35 70  1  0
 35 71  1  0
M  END
> <Name>
Molecule

> <AbsoluteEnergy>
52.4003

> <Clean Energy>
225.967

> <ConfNumber>
21

> <MOL_NUMBER>
5

> <RelativeEnergy>
4.09816

> <POSE_NUMBER>
4

> <LibDockScore>
137.03

> <HotSpots>
-3.53,-22.32,46.59,A,20,1
-4.53,-24.52,46.19,A,17,3
-4.33,-32.92,55.19,A,75,31

$$$$
Molecule
  SciTegic05072616053D

 71 75  0  0  0  0            999 V2000
   -3.7911  -22.1530   46.2990 C   0  0  0  1  0  0
   -3.9828  -23.4731   47.0965 C   0  0  0  1  0  0
   -4.8416  -24.4898   46.3013 C   0  0  0  1  0  0
   -4.5682  -23.2070   48.4715 C   0  0  0  1  0  0
   -5.7903  -22.4932   48.5080 C   0  0  0  1  0  0
   -6.4464  -22.2144   49.7192 C   0  0  0  1  0  0
   -5.8755  -22.6375   50.9297 C   0  0  0  1  0  0
   -4.6480  -23.3237   50.9177 C   0  0  0  1  0  0
   -3.9620  -23.6364   49.7062 C   0  0  0  1  0  0
   -2.6563  -24.4437   49.7441 C   0  0  0  1  0  0
   -1.5676  -23.8073   48.8714 C   0  0  0  1  0  0
   -1.2487  -22.6433   49.0019 O   0  0  0  1  0  0
   -0.9511  -24.5800   47.9028 N   0  0  0  1  0  0
    0.0431  -24.0431   46.9221 C   0  0  0  1  0  0
    1.2633  -23.4844   47.5139 N   0  0  0  1  0  0
    2.1360  -24.6199   47.8120 C   0  0  0  1  0  0
    1.6975  -25.7103   46.8430 C   0  0  0  1  0  0
    0.5876  -25.1173   46.0890 N   0  0  0  1  0  0
   -1.9778  -24.5120   51.1603 C   0  0  0  1  0  0
   -2.5749  -25.5641   52.1247 C   0  0  0  1  0  0
   -2.5779  -26.9304   51.5230 N   0  0  0  1  0  0
   -2.8738  -28.0660   52.2811 C   0  0  0  1  0  0
   -2.7400  -28.0739   53.6954 C   0  0  0  1  0  0
   -3.2159  -29.1647   54.4498 C   0  0  0  1  0  0
   -3.8226  -30.2483   53.8064 C   0  0  0  1  0  0
   -4.5338  -31.2846   54.6328 C   0  0  0  1  0  0
   -5.9702  -30.7995   54.8229 C   0  0  0  1  0  0
   -6.2463  -30.1183   55.7858 O   0  0  0  1  0  0
   -6.8712  -31.1141   53.8785 O   0  0  0  1  0  0
   -3.8187  -32.0499   55.7283 C   0  0  0  1  0  0
   -4.2430  -32.7664   54.4809 C   0  0  0  1  0  0
   -3.8117  -30.3294   52.4016 C   0  0  0  1  0  0
   -3.3383  -29.2432   51.6441 C   0  0  0  1  0  0
   -2.2888  -27.0180   50.0677 C   0  0  0  1  0  0
   -3.0374  -25.9041   49.3006 C   0  0  0  1  0  0
   -4.7712  -21.7217   46.0952 H   0  0
   -3.3007  -22.3834   45.3532 H   0  0
   -3.1859  -21.4500   46.8714 H   0  0
   -2.9984  -23.9180   47.2415 H   0  0
   -4.3440  -24.7042   45.3555 H   0  0
   -5.8144  -24.0424   46.0975 H   0  0
   -4.9663  -25.4089   46.8739 H   0  0
   -6.2337  -22.1511   47.5728 H   0  0
   -7.3925  -21.6731   49.7186 H   0  0
   -6.3809  -22.4353   51.8740 H   0  0
   -4.2054  -23.6271   51.8665 H   0  0
   -1.1994  -25.6196   47.8525 H   0  0
   -0.5341  -23.2816   46.3976 H   0  0
    1.0250  -22.9626   48.4171 H   0  0
    3.1763  -24.3526   47.6265 H   0  0
    1.9846  -24.9514   48.8393 H   0  0
    2.5161  -25.9619   46.1687 H   0  0
    1.3506  -26.5840   47.3947 H   0  0
   -0.1654  -25.8561   45.9102 H   0  0
   -2.0486  -23.5309   51.6299 H   0  0
   -0.9167  -24.7238   51.0290 H   0  0
   -3.5980  -25.2825   52.3740 H   0  0
   -1.9888  -25.5807   53.0435 H   0  0
   -2.2666  -27.2315   54.1997 H   0  0
   -3.1112  -29.1640   55.5348 H   0  0
   -6.8533  -32.1617   53.8094 H   0  0
   -4.4833  -32.2669   56.5645 H   0  0
   -2.7491  -31.8402   55.7297 H   0  0
   -3.4020  -32.9422   53.8102 H   0  0
   -5.1373  -33.3677   54.6446 H   0  0
   -4.1687  -31.2303   51.9026 H   0  0
   -3.3286  -29.3076   50.5560 H   0  0
   -2.6082  -27.9906   49.6932 H   0  0
   -1.2164  -26.9093   49.9056 H   0  0
   -2.8314  -26.0139   48.2359 H   0  0
   -4.1095  -26.0445   49.4383 H   0  0
  1  2  1  0
  2  3  1  0
  2  4  1  0
  4  5  2  0
  4  9  1  0
  5  6  1  0
  6  7  2  0
  7  8  1  0
  8  9  2  0
  9 10  1  0
 10 11  1  0
 10 19  1  0
 10 35  1  0
 11 12  2  0
 11 13  1  0
 13 14  1  0
 14 15  1  0
 14 18  1  0
 15 16  1  0
 16 17  1  0
 17 18  1  0
 19 20  1  0
 20 21  1  0
 21 22  1  0
 21 34  1  0
 22 23  2  0
 22 33  1  0
 23 24  1  0
 24 25  2  0
 25 26  1  0
 25 32  1  0
 26 27  1  0
 26 30  1  0
 26 31  1  0
 27 28  2  0
 27 29  1  0
 30 31  1  0
 32 33  2  0
 34 35  1  0
  1 36  1  0
  1 37  1  0
  1 38  1  0
  2 39  1  0
  3 40  1  0
  3 41  1  0
  3 42  1  0
  5 43  1  0
  6 44  1  0
  7 45  1  0
  8 46  1  0
 13 47  1  0
 14 48  1  0
 15 49  1  0
 16 50  1  0
 16 51  1  0
 17 52  1  0
 17 53  1  0
 18 54  1  0
 19 55  1  0
 19 56  1  0
 20 57  1  0
 20 58  1  0
 23 59  1  0
 24 60  1  0
 29 61  1  0
 30 62  1  0
 30 63  1  0
 31 64  1  0
 31 65  1  0
 32 66  1  0
 33 67  1  0
 34 68  1  0
 34 69  1  0
 35 70  1  0
 35 71  1  0
M  END
> <Name>
Molecule

> <AbsoluteEnergy>
62.488

> <Clean Energy>
225.967

> <ConfNumber>
76

> <MOL_NUMBER>
5

> <RelativeEnergy>
14.1859

> <POSE_NUMBER>
5

> <LibDockScore>
133.9236

> <HotSpots>
-3.53,-22.32,46.59,A,20,1
-5.53,-22.92,48.98,A,33,5
-3.93,-33.72,53.78,A,66,31

$$$$
Molecule
  SciTegic05072616053D

 71 75  0  0  0  0            999 V2000
   -2.8284  -25.5019   46.7502 C   0  0  0  1  0  0
   -2.6063  -24.0639   47.2397 C   0  0  0  1  0  0
   -1.2043  -23.5156   46.9140 C   0  0  0  1  0  0
   -3.1381  -23.6654   48.6189 C   0  0  0  1  0  0
   -4.0894  -22.6131   48.5742 C   0  0  0  1  0  0
   -4.6290  -22.0435   49.7282 C   0  0  0  1  0  0
   -4.2143  -22.5019   50.9737 C   0  0  0  1  0  0
   -3.2924  -23.5489   51.0565 C   0  0  0  1  0  0
   -2.7711  -24.2069   49.9121 C   0  0  0  1  0  0
   -1.8631  -25.4308   50.1505 C   0  0  0  1  0  0
   -0.5109  -25.2671   49.4512 C   0  0  0  1  0  0
   -0.1233  -26.0969   48.6601 O   0  0  0  1  0  0
    0.2861  -24.1766   49.7411 N   0  0  0  1  0  0
    1.6872  -24.0906   49.2684 C   0  0  0  1  0  0
    2.2776  -22.8081   49.6400 N   0  0  0  1  0  0
    3.6951  -23.0743   49.7851 C   0  0  0  1  0  0
    3.7540  -24.4940   50.3200 C   0  0  0  1  0  0
    2.5041  -25.1234   49.9088 N   0  0  0  1  0  0
   -2.5892  -26.7409   49.7161 C   0  0  0  1  0  0
   -3.7228  -27.1976   50.6446 C   0  0  0  1  0  0
   -3.2100  -27.4599   52.0108 N   0  0  0  1  0  0
   -3.4483  -28.6591   52.6765 C   0  0  0  1  0  0
   -4.3236  -29.6216   52.1233 C   0  0  0  1  0  0
   -4.5895  -30.8233   52.7992 C   0  0  0  1  0  0
   -3.9841  -31.0855   54.0404 C   0  0  0  1  0  0
   -4.2869  -32.3659   54.7806 C   0  0  0  1  0  0
   -4.9508  -32.1206   56.1250 C   0  0  0  1  0  0
   -6.0302  -32.6186   56.3484 O   0  0  0  1  0  0
   -4.3256  -31.3612   57.0232 O   0  0  0  1  0  0
   -3.3248  -33.5372   54.6617 C   0  0  0  1  0  0
   -4.6796  -33.6119   54.0010 C   0  0  0  1  0  0
   -3.0981  -30.1440   54.5925 C   0  0  0  1  0  0
   -2.8300  -28.9427   53.9156 C   0  0  0  1  0  0
   -2.4517  -26.3406   52.6242 C   0  0  0  1  0  0
   -1.4342  -25.6913   51.6504 C   0  0  0  1  0  0
   -2.0710  -26.1320   47.2163 H   0  0
   -2.6718  -25.5134   45.6716 H   0  0
   -3.8295  -25.8544   46.9984 H   0  0
   -3.3140  -23.5217   46.6126 H   0  0
   -1.0737  -23.5589   45.8327 H   0  0
   -0.4729  -24.1776   47.3776 H   0  0
   -1.0848  -22.4946   47.2764 H   0  0
   -4.4102  -22.2361   47.6031 H   0  0
   -5.3688  -21.2465   49.6539 H   0  0
   -4.6070  -22.0461   51.8826 H   0  0
   -2.9595  -23.8741   52.0421 H   0  0
   -0.1188  -23.3741   50.3216 H   0  0
    1.6697  -24.2138   48.1855 H   0  0
    2.1169  -22.0910   48.8622 H   0  0
    4.1372  -22.3853   50.5047 H   0  0
    4.1901  -23.0193   48.8155 H   0  0
    4.5995  -25.0223   49.8794 H   0  0
    3.8233  -24.4797   51.4077 H   0  0
    1.9938  -25.5083   50.7669 H   0  0
   -2.9965  -26.5984   48.7151 H   0  0
   -1.8534  -27.5421   49.6470 H   0  0
   -4.4862  -26.4209   50.6903 H   0  0
   -4.1699  -28.1090   50.2478 H   0  0
   -4.7976  -29.4286   51.1609 H   0  0
   -5.2675  -31.5551   52.3600 H   0  0
   -4.1529  -30.4469   56.5367 H   0  0
   -3.2923  -34.1233   55.5802 H   0  0
   -2.5350  -33.3338   53.9385 H   0  0
   -4.6123  -33.4486   52.9254 H   0  0
   -5.3699  -34.2366   54.5678 H   0  0
   -2.6173  -30.3469   55.5495 H   0  0
   -2.1379  -28.2216   54.3504 H   0  0
   -1.9174  -26.7118   53.4987 H   0  0
   -3.1556  -25.5793   52.9605 H   0  0
   -1.1178  -24.7415   52.0816 H   0  0
   -0.5370  -26.3103   51.6420 H   0  0
  1  2  1  0
  2  3  1  0
  2  4  1  0
  4  5  2  0
  4  9  1  0
  5  6  1  0
  6  7  2  0
  7  8  1  0
  8  9  2  0
  9 10  1  0
 10 11  1  0
 10 19  1  0
 10 35  1  0
 11 12  2  0
 11 13  1  0
 13 14  1  0
 14 15  1  0
 14 18  1  0
 15 16  1  0
 16 17  1  0
 17 18  1  0
 19 20  1  0
 20 21  1  0
 21 22  1  0
 21 34  1  0
 22 23  2  0
 22 33  1  0
 23 24  1  0
 24 25  2  0
 25 26  1  0
 25 32  1  0
 26 27  1  0
 26 30  1  0
 26 31  1  0
 27 28  2  0
 27 29  1  0
 30 31  1  0
 32 33  2  0
 34 35  1  0
  1 36  1  0
  1 37  1  0
  1 38  1  0
  2 39  1  0
  3 40  1  0
  3 41  1  0
  3 42  1  0
  5 43  1  0
  6 44  1  0
  7 45  1  0
  8 46  1  0
 13 47  1  0
 14 48  1  0
 15 49  1  0
 16 50  1  0
 16 51  1  0
 17 52  1  0
 17 53  1  0
 18 54  1  0
 19 55  1  0
 19 56  1  0
 20 57  1  0
 20 58  1  0
 23 59  1  0
 24 60  1  0
 29 61  1  0
 30 62  1  0
 30 63  1  0
 31 64  1  0
 31 65  1  0
 32 66  1  0
 33 67  1  0
 34 68  1  0
 34 69  1  0
 35 70  1  0
 35 71  1  0
M  END
> <Name>
Molecule

> <AbsoluteEnergy>
64.1802

> <Clean Energy>
225.967

> <ConfNumber>
86

> <MOL_NUMBER>
5

> <RelativeEnergy>
15.8781

> <POSE_NUMBER>
6

> <LibDockScore>
133.7028

> <HotSpots>
-0.93,-23.32,46.98,A,25,3
-4.73,-22.32,50.38,A,46,7
-4.33,-32.92,55.19,A,75,30

$$$$
Molecule
  SciTegic05072616053D

 71 75  0  0  0  0            999 V2000
   -5.3254  -24.1375   48.4510 C   0  0  0  1  0  0
   -4.8873  -24.0043   46.9731 C   0  0  0  1  0  0
   -4.7590  -25.3088   46.1561 C   0  0  0  1  0  0
   -3.8312  -22.9561   46.6394 C   0  0  0  1  0  0
   -4.2981  -21.9556   45.7480 C   0  0  0  1  0  0
   -3.5088  -20.8723   45.3595 C   0  0  0  1  0  0
   -2.2164  -20.7542   45.8599 C   0  0  0  1  0  0
   -1.7148  -21.7320   46.7235 C   0  0  0  1  0  0
   -2.4657  -22.8764   47.1174 C   0  0  0  1  0  0
   -1.7301  -23.8883   48.0251 C   0  0  0  1  0  0
   -0.1915  -23.7874   47.8565 C   0  0  0  1  0  0
    0.2906  -23.8593   46.7469 O   0  0  0  1  0  0
    0.6682  -23.6275   48.9274 N   0  0  0  1  0  0
    2.1259  -23.8532   48.7773 C   0  0  0  1  0  0
    2.8873  -22.7128   49.2856 N   0  0  0  1  0  0
    4.1186  -23.2729   49.8072 C   0  0  0  1  0  0
    3.7020  -24.6262   50.3505 C   0  0  0  1  0  0
    2.5440  -25.0229   49.5587 N   0  0  0  1  0  0
   -2.1603  -23.6472   49.5086 C   0  0  0  1  0  0
   -1.6015  -24.6795   50.5098 C   0  0  0  1  0  0
   -1.8681  -26.0727   50.0560 N   0  0  0  1  0  0
   -2.5274  -27.0097   50.8471 C   0  0  0  1  0  0
   -2.9130  -26.6964   52.1706 C   0  0  0  1  0  0
   -3.5766  -27.6424   52.9686 C   0  0  0  1  0  0
   -3.8735  -28.9168   52.4560 C   0  0  0  1  0  0
   -4.5884  -29.9327   53.3140 C   0  0  0  1  0  0
   -3.6448  -30.7100   54.2162 C   0  0  0  1  0  0
   -3.1927  -30.1696   55.2000 O   0  0  0  1  0  0
   -3.3392  -31.9682   53.8997 O   0  0  0  1  0  0
   -5.8009  -30.6610   52.7536 C   0  0  0  1  0  0
   -5.9847  -29.6196   53.8302 C   0  0  0  1  0  0
   -3.4973  -29.2397   51.1406 C   0  0  0  1  0  0
   -2.8288  -28.2958   50.3441 C   0  0  0  1  0  0
   -1.3865  -26.3814   48.6806 C   0  0  0  1  0  0
   -1.9971  -25.3868   47.6731 C   0  0  0  1  0  0
   -4.5981  -24.7984   48.9226 H   0  0
   -6.2823  -24.6592   48.4358 H   0  0
   -5.3939  -23.1774   48.9625 H   0  0
   -5.8015  -23.5526   46.5880 H   0  0
   -5.7330  -25.7952   46.2101 H   0  0
   -4.0488  -25.9343   46.6968 H   0  0
   -4.4471  -25.1369   45.1259 H   0  0
   -5.3105  -22.0362   45.3522 H   0  0
   -3.9017  -20.1252   44.6699 H   0  0
   -1.5970  -19.9022   45.5796 H   0  0
   -0.7037  -21.6135   47.1130 H   0  0
    0.2755  -23.3364   49.8792 H   0  0
    2.3183  -23.9994   47.7144 H   0  0
    3.1037  -22.0325   48.4886 H   0  0
    4.5064  -22.6495   50.6129 H   0  0
    4.8455  -23.3993   49.0048 H   0  0
    4.5098  -25.3457   50.2165 H   0  0
    3.4229  -24.5369   51.4004 H   0  0
    1.7496  -25.3272   50.2078 H   0  0
   -1.8322  -22.6530   49.8119 H   0  0
   -3.2487  -23.6590   49.5657 H   0  0
   -0.5258  -24.5358   50.6109 H   0  0
   -2.0668  -24.5253   51.4834 H   0  0
   -2.6927  -25.7090   52.5764 H   0  0
   -3.8624  -27.3874   53.9891 H   0  0
   -2.9456  -31.9182   52.9275 H   0  0
   -5.8806  -31.6718   53.1537 H   0  0
   -6.0782  -30.2780   51.7715 H   0  0
   -6.3609  -28.6814   53.4224 H   0  0
   -6.1617  -30.0749   54.8046 H   0  0
   -3.7253  -30.2264   50.7373 H   0  0
   -2.5391  -28.5579   49.3265 H   0  0
   -1.6819  -27.3955   48.4115 H   0  0
   -0.2996  -26.3041   48.6516 H   0  0
   -1.5902  -25.5953   46.6836 H   0  0
   -3.0736  -25.5513   47.6257 H   0  0
  1  2  1  0
  2  3  1  0
  2  4  1  0
  4  5  2  0
  4  9  1  0
  5  6  1  0
  6  7  2  0
  7  8  1  0
  8  9  2  0
  9 10  1  0
 10 11  1  0
 10 19  1  0
 10 35  1  0
 11 12  2  0
 11 13  1  0
 13 14  1  0
 14 15  1  0
 14 18  1  0
 15 16  1  0
 16 17  1  0
 17 18  1  0
 19 20  1  0
 20 21  1  0
 21 22  1  0
 21 34  1  0
 22 23  2  0
 22 33  1  0
 23 24  1  0
 24 25  2  0
 25 26  1  0
 25 32  1  0
 26 27  1  0
 26 30  1  0
 26 31  1  0
 27 28  2  0
 27 29  1  0
 30 31  1  0
 32 33  2  0
 34 35  1  0
  1 36  1  0
  1 37  1  0
  1 38  1  0
  2 39  1  0
  3 40  1  0
  3 41  1  0
  3 42  1  0
  5 43  1  0
  6 44  1  0
  7 45  1  0
  8 46  1  0
 13 47  1  0
 14 48  1  0
 15 49  1  0
 16 50  1  0
 16 51  1  0
 17 52  1  0
 17 53  1  0
 18 54  1  0
 19 55  1  0
 19 56  1  0
 20 57  1  0
 20 58  1  0
 23 59  1  0
 24 60  1  0
 29 61  1  0
 30 62  1  0
 30 63  1  0
 31 64  1  0
 31 65  1  0
 32 66  1  0
 33 67  1  0
 34 68  1  0
 34 69  1  0
 35 70  1  0
 35 71  1  0
M  END
> <Name>
Molecule

> <AbsoluteEnergy>
65.7679

> <Clean Energy>
225.967

> <ConfNumber>
92

> <MOL_NUMBER>
5

> <RelativeEnergy>
17.4658

> <POSE_NUMBER>
7

> <LibDockScore>
132.7834

> <HotSpots>
4.07,-23.72,49.78,A,37,16
2.47,-25.32,48.78,P,32,18
-6.53,-30.72,51.78,A,56,30

$$$$
Molecule
  SciTegic05072616053D

 71 75  0  0  0  0            999 V2000
   -4.9872  -24.4407   45.9703 C   0  0  0  1  0  0
   -4.6863  -23.6841   47.2787 C   0  0  0  1  0  0
   -5.7971  -22.6664   47.6039 C   0  0  0  1  0  0
   -3.3137  -23.0497   47.2609 C   0  0  0  1  0  0
   -3.1185  -22.0125   46.3196 C   0  0  0  1  0  0
   -1.9201  -21.2934   46.2631 C   0  0  0  1  0  0
   -0.8922  -21.5964   47.1570 C   0  0  0  1  0  0
   -1.0536  -22.6386   48.0803 C   0  0  0  1  0  0
   -2.2349  -23.4281   48.1313 C   0  0  0  1  0  0
   -2.3096  -24.6187   49.1079 C   0  0  0  1  0  0
   -1.1083  -24.6926   50.0829 C   0  0  0  1  0  0
   -1.2743  -24.5439   51.2735 O   0  0  0  1  0  0
    0.1727  -24.9507   49.6220 N   0  0  0  1  0  0
    1.3654  -24.5374   50.4129 C   0  0  0  1  0  0
    1.4606  -25.2727   51.6807 N   0  0  0  1  0  0
    2.8541  -25.1286   52.0695 C   0  0  0  1  0  0
    3.6323  -24.9171   50.7743 C   0  0  0  1  0  0
    2.6430  -24.7510   49.7140 N   0  0  0  1  0  0
   -3.6379  -24.5206   49.9443 C   0  0  0  1  0  0
   -4.3900  -25.8558   50.1637 C   0  0  0  1  0  0
   -3.4791  -27.0221   50.3656 N   0  0  0  1  0  0
   -3.6803  -27.9317   51.4008 C   0  0  0  1  0  0
   -4.8429  -27.8645   52.2047 C   0  0  0  1  0  0
   -5.0483  -28.7770   53.2531 C   0  0  0  1  0  0
   -4.0945  -29.7763   53.5194 C   0  0  0  1  0  0
   -4.3127  -30.7478   54.6632 C   0  0  0  1  0  0
   -3.5198  -30.3909   55.9294 C   0  0  0  1  0  0
   -2.4189  -29.9010   55.8056 O   0  0  0  1  0  0
   -4.0312  -30.6196   57.1460 O   0  0  0  1  0  0
   -4.5160  -32.2236   54.3522 C   0  0  0  1  0  0
   -5.6949  -31.3804   54.7753 C   0  0  0  1  0  0
   -2.9390  -29.8580   52.7224 C   0  0  0  1  0  0
   -2.7318  -28.9437   51.6751 C   0  0  0  1  0  0
   -2.3548  -27.1848   49.3916 C   0  0  0  1  0  0
   -2.2705  -26.0101   48.3883 C   0  0  0  1  0  0
   -5.0681  -23.7176   45.1587 H   0  0
   -5.9386  -24.9616   46.0782 H   0  0
   -4.1928  -25.1555   45.7554 H   0  0
   -4.6760  -24.4160   48.0863 H   0  0
   -6.7428  -23.1997   47.7004 H   0  0
   -5.8724  -21.9557   46.7809 H   0  0
   -5.5689  -22.1407   48.5311 H   0  0
   -3.9199  -21.7680   45.6225 H   0  0
   -1.7899  -20.5014   45.5256 H   0  0
    0.0348  -21.0234   47.1372 H   0  0
   -0.2471  -22.8507   48.7822 H   0  0
    0.3068  -25.4529   48.6867 H   0  0
    1.2127  -23.4708   50.5776 H   0  0
    0.8246  -24.8249   52.4155 H   0  0
    3.1995  -26.0361   52.5647 H   0  0
    2.9720  -24.2606   52.7182 H   0  0
    4.2527  -25.7893   50.5681 H   0  0
    4.2444  -24.0187   50.8534 H   0  0
    2.8841  -23.8952   49.1187 H   0  0
   -4.3115  -23.8219   49.4482 H   0  0
   -3.4044  -24.0909   50.9184 H   0  0
   -5.0255  -26.0513   49.3000 H   0  0
   -5.0363  -25.7588   51.0361 H   0  0
   -5.5890  -27.0946   52.0080 H   0  0
   -5.9498  -28.7105   53.8622 H   0  0
   -4.2600  -31.6444   57.1415 H   0  0
   -4.1614  -32.8564   55.1658 H   0  0
   -4.5185  -32.4088   53.2780 H   0  0
   -6.3255  -31.1156   53.9266 H   0  0
   -5.9673  -31.5620   55.8150 H   0  0
   -2.1997  -30.6348   52.9178 H   0  0
   -1.8297  -29.0157   51.0675 H   0  0
   -2.4930  -28.1145   48.8397 H   0  0
   -1.4156  -27.2518   49.9407 H   0  0
   -1.3443  -26.0934   47.8197 H   0  0
   -3.1065  -26.0757   47.6920 H   0  0
  1  2  1  0
  2  3  1  0
  2  4  1  0
  4  5  2  0
  4  9  1  0
  5  6  1  0
  6  7  2  0
  7  8  1  0
  8  9  2  0
  9 10  1  0
 10 11  1  0
 10 19  1  0
 10 35  1  0
 11 12  2  0
 11 13  1  0
 13 14  1  0
 14 15  1  0
 14 18  1  0
 15 16  1  0
 16 17  1  0
 17 18  1  0
 19 20  1  0
 20 21  1  0
 21 22  1  0
 21 34  1  0
 22 23  2  0
 22 33  1  0
 23 24  1  0
 24 25  2  0
 25 26  1  0
 25 32  1  0
 26 27  1  0
 26 30  1  0
 26 31  1  0
 27 28  2  0
 27 29  1  0
 30 31  1  0
 32 33  2  0
 34 35  1  0
  1 36  1  0
  1 37  1  0
  1 38  1  0
  2 39  1  0
  3 40  1  0
  3 41  1  0
  3 42  1  0
  5 43  1  0
  6 44  1  0
  7 45  1  0
  8 46  1  0
 13 47  1  0
 14 48  1  0
 15 49  1  0
 16 50  1  0
 16 51  1  0
 17 52  1  0
 17 53  1  0
 18 54  1  0
 19 55  1  0
 19 56  1  0
 20 57  1  0
 20 58  1  0
 23 59  1  0
 24 60  1  0
 29 61  1  0
 30 62  1  0
 30 63  1  0
 31 64  1  0
 31 65  1  0
 32 66  1  0
 33 67  1  0
 34 68  1  0
 34 69  1  0
 35 70  1  0
 35 71  1  0
M  END
> <Name>
Molecule

> <AbsoluteEnergy>
60.6965

> <Clean Energy>
225.967

> <ConfNumber>
66

> <MOL_NUMBER>
5

> <RelativeEnergy>
12.3943

> <POSE_NUMBER>
8

> <LibDockScore>
131.9672

> <HotSpots>
-2.53,-22.32,48.19,A,29,8
3.07,-24.52,50.38,A,43,17
-4.13,-30.52,57.38,P,71,29

$$$$
Molecule
  SciTegic05072616053D

 71 75  0  0  0  0            999 V2000
   -5.8016  -22.6294   49.7109 C   0  0  0  1  0  0
   -4.4214  -23.3212   49.6152 C   0  0  0  1  0  0
   -3.3314  -22.2775   49.9306 C   0  0  0  1  0  0
   -4.1387  -24.0681   48.3201 C   0  0  0  1  0  0
   -4.9911  -23.7847   47.2213 C   0  0  0  1  0  0
   -4.8206  -24.3876   45.9743 C   0  0  0  1  0  0
   -3.7775  -25.2885   45.7825 C   0  0  0  1  0  0
   -2.9173  -25.5865   46.8420 C   0  0  0  1  0  0
   -3.0667  -25.0214   48.1389 C   0  0  0  1  0  0
   -2.0352  -25.4695   49.2079 C   0  0  0  1  0  0
   -0.6863  -24.7836   48.9349 C   0  0  0  1  0  0
   -0.5836  -23.9405   48.0700 O   0  0  0  1  0  0
    0.4330  -25.1121   49.6722 N   0  0  0  1  0  0
    1.7673  -24.5517   49.3388 C   0  0  0  1  0  0
    1.8444  -23.1091   49.5892 N   0  0  0  1  0  0
    3.2620  -22.8642   49.7854 C   0  0  0  1  0  0
    3.7840  -24.1209   50.4657 C   0  0  0  1  0  0
    2.8176  -25.1670   50.1551 N   0  0  0  1  0  0
   -1.7966  -27.0237   49.1885 C   0  0  0  1  0  0
   -3.0590  -27.8420   49.5297 C   0  0  0  1  0  0
   -3.5949  -27.4509   50.8671 N   0  0  0  1  0  0
   -3.8974  -28.3787   51.8585 C   0  0  0  1  0  0
   -3.3364  -29.6761   51.8358 C   0  0  0  1  0  0
   -3.6362  -30.6058   52.8436 C   0  0  0  1  0  0
   -4.4948  -30.2531   53.8989 C   0  0  0  1  0  0
   -4.7961  -31.2453   54.9936 C   0  0  0  1  0  0
   -3.8373  -31.1208   56.1656 C   0  0  0  1  0  0
   -2.8742  -31.8501   56.2195 O   0  0  0  1  0  0
   -4.0817  -30.2047   57.1012 O   0  0  0  1  0  0
   -5.3219  -32.6249   54.6254 C   0  0  0  1  0  0
   -6.2402  -31.6259   55.2869 C   0  0  0  1  0  0
   -5.0632  -28.9676   53.9311 C   0  0  0  1  0  0
   -4.7701  -28.0401   52.9183 C   0  0  0  1  0  0
   -3.7620  -25.9844   51.0809 C   0  0  0  1  0  0
   -2.4662  -25.2403   50.6904 C   0  0  0  1  0  0
   -5.8616  -21.8149   48.9890 H   0  0
   -5.9547  -22.2399   50.7174 H   0  0
   -6.5808  -23.3587   49.4896 H   0  0
   -4.4221  -24.1221   50.3546 H   0  0
   -3.4702  -21.8860   50.9383 H   0  0
   -3.3770  -21.4610   49.2100 H   0  0
   -2.3534  -22.7544   49.8660 H   0  0
   -5.8055  -23.0729   47.3558 H   0  0
   -5.5007  -24.1541   45.1551 H   0  0
   -3.6324  -25.7594   44.8102 H   0  0
   -2.0963  -26.2819   46.6675 H   0  0
    0.3377  -25.7834   50.4999 H   0  0
    1.9112  -24.7596   48.2785 H   0  0
    1.4906  -22.5670   48.7372 H   0  0
    3.4084  -22.0011   50.4348 H   0  0
    3.7562  -22.7288   48.8233 H   0  0
    4.7611  -24.3842   50.0607 H   0  0
    3.8335  -23.9678   51.5438 H   0  0
    2.3954  -25.5504   51.0605 H   0  0
   -1.4447  -27.3152   48.1989 H   0  0
   -1.0126  -27.2711   49.9042 H   0  0
   -3.8207  -27.6632   48.7708 H   0  0
   -2.8106  -28.9033   49.5384 H   0  0
   -2.6631  -29.9577   51.0262 H   0  0
   -3.2016  -31.6048   52.8077 H   0  0
   -5.0484  -30.4194   57.4503 H   0  0
   -4.9799  -33.3842   55.3287 H   0  0
   -5.5180  -32.7053   53.5562 H   0  0
   -6.9263  -31.1742   54.5704 H   0  0
   -6.3870  -31.8520   56.3431 H   0  0
   -5.7334  -28.6901   54.7447 H   0  0
   -5.2204  -27.0480   52.9495 H   0  0
   -3.9855  -25.7939   52.1306 H   0  0
   -4.5863  -25.6209   50.4673 H   0  0
   -2.6105  -24.1726   50.8559 H   0  0
   -1.6605  -25.5688   51.3469 H   0  0
  1  2  1  0
  2  3  1  0
  2  4  1  0
  4  5  2  0
  4  9  1  0
  5  6  1  0
  6  7  2  0
  7  8  1  0
  8  9  2  0
  9 10  1  0
 10 11  1  0
 10 19  1  0
 10 35  1  0
 11 12  2  0
 11 13  1  0
 13 14  1  0
 14 15  1  0
 14 18  1  0
 15 16  1  0
 16 17  1  0
 17 18  1  0
 19 20  1  0
 20 21  1  0
 21 22  1  0
 21 34  1  0
 22 23  2  0
 22 33  1  0
 23 24  1  0
 24 25  2  0
 25 26  1  0
 25 32  1  0
 26 27  1  0
 26 30  1  0
 26 31  1  0
 27 28  2  0
 27 29  1  0
 30 31  1  0
 32 33  2  0
 34 35  1  0
  1 36  1  0
  1 37  1  0
  1 38  1  0
  2 39  1  0
  3 40  1  0
  3 41  1  0
  3 42  1  0
  5 43  1  0
  6 44  1  0
  7 45  1  0
  8 46  1  0
 13 47  1  0
 14 48  1  0
 15 49  1  0
 16 50  1  0
 16 51  1  0
 17 52  1  0
 17 53  1  0
 18 54  1  0
 19 55  1  0
 19 56  1  0
 20 57  1  0
 20 58  1  0
 23 59  1  0
 24 60  1  0
 29 61  1  0
 30 62  1  0
 30 63  1  0
 31 64  1  0
 31 65  1  0
 32 66  1  0
 33 67  1  0
 34 68  1  0
 34 69  1  0
 35 70  1  0
 35 71  1  0
M  END
> <Name>
Molecule

> <AbsoluteEnergy>
59.955

> <Clean Energy>
225.967

> <ConfNumber>
59

> <MOL_NUMBER>
5

> <RelativeEnergy>
11.6528

> <POSE_NUMBER>
9

> <LibDockScore>
131.1118

> <HotSpots>
-4.33,-26.12,45.19,A,10,6
2.67,-22.92,49.98,A,39,16
-4.13,-30.52,57.38,P,71,28

$$$$
Molecule
  SciTegic05072616053D

 71 75  0  0  0  0            999 V2000
   -5.8326  -22.6062   49.7413 C   0  0  0  1  0  0
   -4.4624  -23.3179   49.6482 C   0  0  0  1  0  0
   -3.3590  -22.2938   49.9809 C   0  0  0  1  0  0
   -4.1821  -24.0567   48.3479 C   0  0  0  1  0  0
   -5.0411  -23.7720   47.2547 C   0  0  0  1  0  0
   -4.8735  -24.3675   46.0037 C   0  0  0  1  0  0
   -3.8268  -25.2621   45.8023 C   0  0  0  1  0  0
   -2.9600  -25.5611   46.8561 C   0  0  0  1  0  0
   -3.1061  -25.0035   48.1566 C   0  0  0  1  0  0
   -2.0672  -25.4519   49.2184 C   0  0  0  1  0  0
   -0.7223  -24.7603   48.9406 C   0  0  0  1  0  0
   -0.6258  -23.9182   48.0740 O   0  0  0  1  0  0
    0.4005  -25.0824   49.6754 N   0  0  0  1  0  0
    1.7333  -24.5253   49.3305 C   0  0  0  1  0  0
    1.8257  -23.0886   49.6085 N   0  0  0  1  0  0
    3.2483  -22.8583   49.7853 C   0  0  0  1  0  0
    3.7720  -24.1323   50.4313 C   0  0  0  1  0  0
    2.7925  -25.1647   50.1163 N   0  0  0  1  0  0
   -1.8234  -27.0052   49.1921 C   0  0  0  1  0  0
   -3.0811  -27.8290   49.5372 C   0  0  0  1  0  0
   -3.6111  -27.4447   50.8788 N   0  0  0  1  0  0
   -3.9049  -28.3771   51.8685 C   0  0  0  1  0  0
   -3.2527  -29.6309   51.9031 C   0  0  0  1  0  0
   -3.5447  -30.5648   52.9093 C   0  0  0  1  0  0
   -4.4872  -30.2593   53.9061 C   0  0  0  1  0  0
   -4.7814  -31.2544   55.0002 C   0  0  0  1  0  0
   -3.8273  -31.1197   56.1749 C   0  0  0  1  0  0
   -2.8721  -31.8578   56.2462 O   0  0  0  1  0  0
   -4.0671  -30.1854   57.0936 O   0  0  0  1  0  0
   -5.2918  -32.6394   54.6308 C   0  0  0  1  0  0
   -6.2223  -31.6498   55.2894 C   0  0  0  1  0  0
   -5.1465  -29.0178   53.8809 C   0  0  0  1  0  0
   -4.8607  -28.0867   52.8693 C   0  0  0  1  0  0
   -3.7820  -25.9795   51.0988 C   0  0  0  1  0  0
   -2.4910  -25.2295   50.7041 C   0  0  0  1  0  0
   -5.8754  -21.7841   49.0269 H   0  0
   -5.9867  -22.2240   50.7504 H   0  0
   -6.6212  -23.3215   49.5078 H   0  0
   -4.4802  -24.1257   50.3798 H   0  0
   -3.4987  -21.9098   50.9914 H   0  0
   -3.3873  -21.4699   49.2678 H   0  0
   -2.3879  -22.7848   49.9183 H   0  0
   -5.8585  -23.0651   47.3968 H   0  0
   -5.5586  -24.1332   45.1890 H   0  0
   -3.6840  -25.7273   44.8269 H   0  0
   -2.1363  -26.2513   46.6741 H   0  0
    0.3091  -25.7462   50.5096 H   0  0
    1.8577  -24.7129   48.2640 H   0  0
    1.4617  -22.5268   48.7737 H   0  0
    3.4124  -22.0096   50.4492 H   0  0
    3.7271  -22.7072   48.8178 H   0  0
    4.7401  -24.3945   50.0045 H   0  0
    3.8408  -24.0014   51.5112 H   0  0
    2.3827  -25.5632   51.0208 H   0  0
   -1.4759  -27.2919   48.1995 H   0  0
   -1.0347  -27.2525   49.9027 H   0  0
   -3.8475  -27.6501   48.7831 H   0  0
   -2.8291  -28.8895   49.5407 H   0  0
   -2.5144  -29.8752   51.1394 H   0  0
   -3.0388  -31.5303   52.9177 H   0  0
   -5.0377  -30.3844   57.4413 H   0  0
   -4.9440  -33.3949   55.3353 H   0  0
   -5.4839  -32.7221   53.5611 H   0  0
   -6.9109  -31.2054   54.5708 H   0  0
   -6.3698  -31.8772   56.3452 H   0  0
   -5.8817  -28.7773   54.6489 H   0  0
   -5.3815  -27.1293   52.8554 H   0  0
   -4.0005  -25.7936   52.1504 H   0  0
   -4.6109  -25.6166   50.4910 H   0  0
   -2.6381  -24.1630   50.8742 H   0  0
   -1.6806  -25.5576   51.3551 H   0  0
  1  2  1  0
  2  3  1  0
  2  4  1  0
  4  5  2  0
  4  9  1  0
  5  6  1  0
  6  7  2  0
  7  8  1  0
  8  9  2  0
  9 10  1  0
 10 11  1  0
 10 19  1  0
 10 35  1  0
 11 12  2  0
 11 13  1  0
 13 14  1  0
 14 15  1  0
 14 18  1  0
 15 16  1  0
 16 17  1  0
 17 18  1  0
 19 20  1  0
 20 21  1  0
 21 22  1  0
 21 34  1  0
 22 23  2  0
 22 33  1  0
 23 24  1  0
 24 25  2  0
 25 26  1  0
 25 32  1  0
 26 27  1  0
 26 30  1  0
 26 31  1  0
 27 28  2  0
 27 29  1  0
 30 31  1  0
 32 33  2  0
 34 35  1  0
  1 36  1  0
  1 37  1  0
  1 38  1  0
  2 39  1  0
  3 40  1  0
  3 41  1  0
  3 42  1  0
  5 43  1  0
  6 44  1  0
  7 45  1  0
  8 46  1  0
 13 47  1  0
 14 48  1  0
 15 49  1  0
 16 50  1  0
 16 51  1  0
 17 52  1  0
 17 53  1  0
 18 54  1  0
 19 55  1  0
 19 56  1  0
 20 57  1  0
 20 58  1  0
 23 59  1  0
 24 60  1  0
 29 61  1  0
 30 62  1  0
 30 63  1  0
 31 64  1  0
 31 65  1  0
 32 66  1  0
 33 67  1  0
 34 68  1  0
 34 69  1  0
 35 70  1  0
 35 71  1  0
M  END
> <Name>
Molecule

> <AbsoluteEnergy>
59.955

> <Clean Energy>
225.967

> <ConfNumber>
59

> <MOL_NUMBER>
5

> <RelativeEnergy>
11.6528

> <POSE_NUMBER>
10

> <LibDockScore>
130.5724

> <HotSpots>
-3.33,-21.92,50.38,A,47,3
-4.93,-23.52,47.59,A,26,5
-3.33,-32.52,56.19,P,67,28

$$$$
Molecule
  SciTegic05072616053D

 71 75  0  0  0  0            999 V2000
   -2.7944  -22.8141   46.6966 C   0  0  0  1  0  0
   -3.3425  -24.0657   47.4372 C   0  0  0  1  0  0
   -4.1042  -25.0038   46.4660 C   0  0  0  1  0  0
   -4.2066  -23.6716   48.6213 C   0  0  0  1  0  0
   -5.4170  -23.0010   48.3218 C   0  0  0  1  0  0
   -6.3160  -22.6147   49.3307 C   0  0  0  1  0  0
   -6.0074  -22.8832   50.6735 C   0  0  0  1  0  0
   -4.7973  -23.5235   50.9947 C   0  0  0  1  0  0
   -3.8686  -23.9425   49.9956 C   0  0  0  1  0  0
   -2.5911  -24.6950   50.3953 C   0  0  0  1  0  0
   -1.3410  -24.0706   49.7636 C   0  0  0  1  0  0
   -1.3702  -22.9705   49.2512 O   0  0  0  1  0  0
   -0.1597  -24.7917   49.7665 N   0  0  0  1  0  0
    1.0151  -24.4626   48.9004 C   0  0  0  1  0  0
    1.5732  -23.1196   49.0908 N   0  0  0  1  0  0
    2.4345  -23.1930   50.2710 C   0  0  0  1  0  0
    2.8482  -24.6564   50.3582 C   0  0  0  1  0  0
    2.1638  -25.3068   49.2353 N   0  0  0  1  0  0
   -2.2682  -24.6519   51.9330 C   0  0  0  1  0  0
   -3.0533  -25.6665   52.7978 C   0  0  0  1  0  0
   -2.8811  -27.0656   52.3060 N   0  0  0  1  0  0
   -3.3225  -28.1642   53.0476 C   0  0  0  1  0  0
   -4.7053  -28.4238   53.2442 C   0  0  0  1  0  0
   -5.1262  -29.6311   53.8368 C   0  0  0  1  0  0
   -4.1804  -30.5808   54.2363 C   0  0  0  1  0  0
   -4.6475  -31.9517   54.6429 C   0  0  0  1  0  0
   -4.6574  -32.8152   53.3824 C   0  0  0  1  0  0
   -5.4171  -32.5421   52.4792 O   0  0  0  1  0  0
   -3.7800  -33.8287   53.3066 O   0  0  0  1  0  0
   -5.6898  -32.1432   55.7264 C   0  0  0  1  0  0
   -4.2720  -32.5603   55.9815 C   0  0  0  1  0  0
   -2.8091  -30.2674   54.2008 C   0  0  0  1  0  0
   -2.3839  -29.0642   53.6100 C   0  0  0  1  0  0
   -2.2515  -27.2291   50.9696 C   0  0  0  1  0  0
   -2.8215  -26.1931   49.9739 C   0  0  0  1  0  0
   -3.6314  -22.2761   46.2515 H   0  0
   -2.1216  -23.1427   45.9045 H   0  0
   -2.2623  -22.1658   47.3928 H   0  0
   -2.4887  -24.6203   47.8266 H   0  0
   -3.4225  -25.3174   45.6754 H   0  0
   -4.9323  -24.4509   46.0225 H   0  0
   -4.4816  -25.8755   47.0006 H   0  0
   -5.6578  -22.7786   47.2822 H   0  0
   -7.2468  -22.1099   49.0721 H   0  0
   -6.7021  -22.5969   51.4631 H   0  0
   -4.5606  -23.7060   52.0429 H   0  0
   -0.0822  -25.6315   50.4250 H   0  0
    0.6086  -24.5901   47.8971 H   0  0
    0.7841  -22.4171   49.2602 H   0  0
    3.3143  -22.5644   50.1333 H   0  0
    1.8756  -22.9100   51.1630 H   0  0
    3.9282  -24.7467   50.2416 H   0  0
    2.5104  -25.0854   51.3016 H   0  0
    1.8272  -26.2790   49.5293 H   0  0
   -2.4717  -23.6478   52.3053 H   0  0
   -1.2017  -24.8301   52.0707 H   0  0
   -4.1126  -25.4102   52.7788 H   0  0
   -2.7027  -25.6053   53.8281 H   0  0
   -5.4448  -27.6851   52.9350 H   0  0
   -6.1887  -29.8247   53.9838 H   0  0
   -3.9646  -34.4253   54.1507 H   0  0
   -6.3313  -32.9994   55.5180 H   0  0
   -5.9293  -31.2021   56.2215 H   0  0
   -3.7477  -31.8437   56.6137 H   0  0
   -4.1493  -33.6409   55.9085 H   0  0
   -2.0794  -30.9544   54.6295 H   0  0
   -1.3216  -28.8216   53.5845 H   0  0
   -2.4496  -28.2340   50.5968 H   0  0
   -1.1742  -27.0888   51.0586 H   0  0
   -2.3652  -26.3586   48.9979 H   0  0
   -3.8920  -26.3663   49.8636 H   0  0
  1  2  1  0
  2  3  1  0
  2  4  1  0
  4  5  2  0
  4  9  1  0
  5  6  1  0
  6  7  2  0
  7  8  1  0
  8  9  2  0
  9 10  1  0
 10 11  1  0
 10 19  1  0
 10 35  1  0
 11 12  2  0
 11 13  1  0
 13 14  1  0
 14 15  1  0
 14 18  1  0
 15 16  1  0
 16 17  1  0
 17 18  1  0
 19 20  1  0
 20 21  1  0
 21 22  1  0
 21 34  1  0
 22 23  2  0
 22 33  1  0
 23 24  1  0
 24 25  2  0
 25 26  1  0
 25 32  1  0
 26 27  1  0
 26 30  1  0
 26 31  1  0
 27 28  2  0
 27 29  1  0
 30 31  1  0
 32 33  2  0
 34 35  1  0
  1 36  1  0
  1 37  1  0
  1 38  1  0
  2 39  1  0
  3 40  1  0
  3 41  1  0
  3 42  1  0
  5 43  1  0
  6 44  1  0
  7 45  1  0
  8 46  1  0
 13 47  1  0
 14 48  1  0
 15 49  1  0
 16 50  1  0
 16 51  1  0
 17 52  1  0
 17 53  1  0
 18 54  1  0
 19 55  1  0
 19 56  1  0
 20 57  1  0
 20 58  1  0
 23 59  1  0
 24 60  1  0
 29 61  1  0
 30 62  1  0
 30 63  1  0
 31 64  1  0
 31 65  1  0
 32 66  1  0
 33 67  1  0
 34 68  1  0
 34 69  1  0
 35 70  1  0
 35 71  1  0
M  END
> <Name>
Molecule

> <AbsoluteEnergy>
62.488

> <Clean Energy>
225.967

> <ConfNumber>
76

> <MOL_NUMBER>
5

> <RelativeEnergy>
14.1859

> <POSE_NUMBER>
11

> <LibDockScore>
130.4461

> <HotSpots>
-4.53,-24.52,46.19,A,17,5
2.47,-25.32,48.78,P,32,18
-4.13,-31.12,56.59,A,79,31

$$$$
Molecule
  SciTegic05072616053D

 71 75  0  0  0  0            999 V2000
   -3.4469  -22.7237   46.8760 C   0  0  0  1  0  0
   -3.5449  -24.1013   47.5620 C   0  0  0  1  0  0
   -4.2713  -25.1182   46.6604 C   0  0  0  1  0  0
   -4.1822  -24.0107   48.9318 C   0  0  0  1  0  0
   -5.5220  -23.5615   48.9755 C   0  0  0  1  0  0
   -6.1899  -23.3805   50.1914 C   0  0  0  1  0  0
   -5.5178  -23.6231   51.3902 C   0  0  0  1  0  0
   -4.1951  -24.0797   51.3685 C   0  0  0  1  0  0
   -3.5092  -24.3435   50.1538 C   0  0  0  1  0  0
   -2.1035  -24.9682   50.1900 C   0  0  0  1  0  0
   -1.0835  -24.0917   49.4422 C   0  0  0  1  0  0
   -1.3427  -22.9515   49.1263 O   0  0  0  1  0  0
    0.1526  -24.6125   49.1199 N   0  0  0  1  0  0
    1.3482  -23.7623   48.8986 C   0  0  0  1  0  0
    1.6755  -22.8905   50.0319 N   0  0  0  1  0  0
    3.0928  -22.6022   49.8660 C   0  0  0  1  0  0
    3.6743  -23.7915   49.1114 C   0  0  0  1  0  0
    2.5308  -24.5982   48.7086 N   0  0  0  1  0  0
   -2.1343  -26.4201   49.6211 C   0  0  0  1  0  0
   -3.0781  -27.3547   50.3863 C   0  0  0  1  0  0
   -2.7723  -27.4152   51.8449 N   0  0  0  1  0  0
   -3.0494  -28.5674   52.5701 C   0  0  0  1  0  0
   -2.6322  -28.7082   53.9128 C   0  0  0  1  0  0
   -3.0417  -29.8129   54.6743 C   0  0  0  1  0  0
   -3.8636  -30.7972   54.0986 C   0  0  0  1  0  0
   -4.4353  -31.9085   54.9457 C   0  0  0  1  0  0
   -5.7207  -31.4707   55.6520 C   0  0  0  1  0  0
   -6.4829  -32.3094   56.0750 O   0  0  0  1  0  0
   -5.9704  -30.1638   55.7849 O   0  0  0  1  0  0
   -3.4931  -32.8831   55.6361 C   0  0  0  1  0  0
   -4.3265  -33.3458   54.4635 C   0  0  0  1  0  0
   -4.1815  -30.7273   52.7312 C   0  0  0  1  0  0
   -3.7783  -29.6184   51.9718 C   0  0  0  1  0  0
   -2.2432  -26.1980   52.5406 C   0  0  0  1  0  0
   -1.5328  -25.1665   51.6340 C   0  0  0  1  0  0
   -4.4537  -22.3657   46.6607 H   0  0
   -2.9008  -22.8354   45.9393 H   0  0
   -2.9313  -22.0157   47.5249 H   0  0
   -2.5275  -24.4613   47.7153 H   0  0
   -3.7201  -25.2154   45.7250 H   0  0
   -5.2731  -24.7457   46.4464 H   0  0
   -4.3329  -26.0861   47.1580 H   0  0
   -6.0454  -23.3519   48.0426 H   0  0
   -7.2291  -23.0519   50.2024 H   0  0
   -6.0224  -23.4572   52.3420 H   0  0
   -3.6754  -24.2377   52.3135 H   0  0
    0.2533  -25.6736   49.0256 H   0  0
    1.0985  -23.1562   48.0277 H   0  0
    1.1068  -21.9858   49.9771 H   0  0
    3.5724  -22.5116   50.8406 H   0  0
    3.2220  -21.6924   49.2798 H   0  0
    4.3240  -24.3686   49.7693 H   0  0
    4.2145  -23.4446   48.2305 H   0  0
    2.6234  -24.8706   47.6780 H   0  0
   -2.4446  -26.3841   48.5768 H   0  0
   -1.1267  -26.8346   49.6526 H   0  0
   -4.1037  -27.0103   50.2538 H   0  0
   -3.0029  -28.3581   49.9673 H   0  0
   -1.9870  -27.9523   54.3605 H   0  0
   -2.7226  -29.9080   55.7122 H   0  0
   -5.9490  -29.7793   54.8081 H   0  0
   -3.9031  -33.2330   56.5835 H   0  0
   -2.4564  -32.7083   55.3484 H   0  0
   -3.7327  -33.4187   53.5524 H   0  0
   -5.1798  -33.9418   54.7871 H   0  0
   -4.7417  -31.5351   52.2604 H   0  0
   -4.0296  -29.5679   50.9124 H   0  0
   -1.5462  -26.5169   53.3156 H   0  0
   -3.0708  -25.7023   53.0480 H   0  0
   -1.5422  -24.2024   52.1425 H   0  0
   -0.4836  -25.4503   51.5517 H   0  0
  1  2  1  0
  2  3  1  0
  2  4  1  0
  4  5  2  0
  4  9  1  0
  5  6  1  0
  6  7  2  0
  7  8  1  0
  8  9  2  0
  9 10  1  0
 10 11  1  0
 10 19  1  0
 10 35  1  0
 11 12  2  0
 11 13  1  0
 13 14  1  0
 14 15  1  0
 14 18  1  0
 15 16  1  0
 16 17  1  0
 17 18  1  0
 19 20  1  0
 20 21  1  0
 21 22  1  0
 21 34  1  0
 22 23  2  0
 22 33  1  0
 23 24  1  0
 24 25  2  0
 25 26  1  0
 25 32  1  0
 26 27  1  0
 26 30  1  0
 26 31  1  0
 27 28  2  0
 27 29  1  0
 30 31  1  0
 32 33  2  0
 34 35  1  0
  1 36  1  0
  1 37  1  0
  1 38  1  0
  2 39  1  0
  3 40  1  0
  3 41  1  0
  3 42  1  0
  5 43  1  0
  6 44  1  0
  7 45  1  0
  8 46  1  0
 13 47  1  0
 14 48  1  0
 15 49  1  0
 16 50  1  0
 16 51  1  0
 17 52  1  0
 17 53  1  0
 18 54  1  0
 19 55  1  0
 19 56  1  0
 20 57  1  0
 20 58  1  0
 23 59  1  0
 24 60  1  0
 29 61  1  0
 30 62  1  0
 30 63  1  0
 31 64  1  0
 31 65  1  0
 32 66  1  0
 33 67  1  0
 34 68  1  0
 34 69  1  0
 35 70  1  0
 35 71  1  0
M  END
> <Name>
Molecule

> <AbsoluteEnergy>
58.6128

> <Clean Energy>
225.967

> <ConfNumber>
45

> <MOL_NUMBER>
5

> <RelativeEnergy>
10.3106

> <POSE_NUMBER>
12

> <LibDockScore>
130.2943

> <HotSpots>
-2.93,-26.32,45.98,A,15,3
-5.53,-22.92,48.98,A,33,7
4.07,-23.72,49.78,A,37,17

$$$$
Molecule
  SciTegic05072616053D

 71 75  0  0  0  0            999 V2000
   -3.4338  -22.7464   46.8382 C   0  0  0  1  0  0
   -3.5752  -24.1313   47.5015 C   0  0  0  1  0  0
   -4.3297  -25.1110   46.5819 C   0  0  0  1  0  0
   -4.2130  -24.0436   48.8712 C   0  0  0  1  0  0
   -5.5550  -23.6009   48.9148 C   0  0  0  1  0  0
   -6.2239  -23.4230   50.1307 C   0  0  0  1  0  0
   -5.5506  -23.6622   51.3296 C   0  0  0  1  0  0
   -4.2257  -24.1124   51.3080 C   0  0  0  1  0  0
   -3.5385  -24.3730   50.0933 C   0  0  0  1  0  0
   -2.1298  -24.9909   50.1297 C   0  0  0  1  0  0
   -1.1129  -24.1067   49.3866 C   0  0  0  1  0  0
   -1.3665  -22.9576   49.0998 O   0  0  0  1  0  0
    0.1138  -24.6308   49.0350 N   0  0  0  1  0  0
    1.3327  -23.7961   48.8968 C   0  0  0  1  0  0
    1.6318  -22.9807   50.0787 N   0  0  0  1  0  0
    3.0596  -22.7142   49.9796 C   0  0  0  1  0  0
    3.6478  -23.8814   49.1963 C   0  0  0  1  0  0
    2.5061  -24.6468   48.7154 N   0  0  0  1  0  0
   -2.1525  -26.4409   49.5556 C   0  0  0  1  0  0
   -3.0929  -27.3828   50.3159 C   0  0  0  1  0  0
   -2.7892  -27.4470   51.7748 N   0  0  0  1  0  0
   -3.0619  -28.6031   52.4955 C   0  0  0  1  0  0
   -2.5457  -28.7963   53.7966 C   0  0  0  1  0  0
   -2.9449  -29.8999   54.5652 C   0  0  0  1  0  0
   -3.8561  -30.8310   54.0373 C   0  0  0  1  0  0
   -4.4104  -31.9358   54.9041 C   0  0  0  1  0  0
   -5.6592  -31.4803   55.6628 C   0  0  0  1  0  0
   -6.4037  -32.3083   56.1355 O   0  0  0  1  0  0
   -5.8974  -30.1702   55.7852 O   0  0  0  1  0  0
   -3.4563  -32.9268   55.5536 C   0  0  0  1  0  0
   -4.3434  -33.3732   54.4145 C   0  0  0  1  0  0
   -4.2788  -30.7124   52.7020 C   0  0  0  1  0  0
   -3.8854  -29.6044   51.9361 C   0  0  0  1  0  0
   -2.2673  -26.2297   52.4757 C   0  0  0  1  0  0
   -1.5605  -25.1915   51.5739 C   0  0  0  1  0  0
   -4.4287  -22.3547   46.6267 H   0  0
   -2.8888  -22.8594   45.9010 H   0  0
   -2.8987  -22.0649   47.4996 H   0  0
   -2.5696  -24.5244   47.6511 H   0  0
   -3.7793  -25.2097   45.6463 H   0  0
   -5.3192  -24.7049   46.3719 H   0  0
   -4.4219  -26.0845   47.0635 H   0  0
   -6.0793  -23.3939   47.9819 H   0  0
   -7.2647  -23.0995   50.1416 H   0  0
   -6.0560  -23.4986   52.2814 H   0  0
   -3.7053  -24.2678   52.2530 H   0  0
    0.1894  -25.6828   48.8545 H   0  0
    1.1283  -23.1481   48.0445 H   0  0
    1.0825  -22.0632   50.0420 H   0  0
    3.5025  -22.6754   50.9748 H   0  0
    3.2284  -21.7828   49.4392 H   0  0
    4.2607  -24.4993   49.8525 H   0  0
    4.2281  -23.5079   48.3526 H   0  0
    2.6336  -24.8764   47.6781 H   0  0
   -2.4613  -26.4027   48.5109 H   0  0
   -1.1429  -26.8506   49.5873 H   0  0
   -4.1200  -27.0430   50.1829 H   0  0
   -3.0120  -28.3844   49.8935 H   0  0
   -1.8315  -28.0821   54.2064 H   0  0
   -2.5486  -30.0353   55.5715 H   0  0
   -5.9208  -29.8022   54.8021 H   0  0
   -3.8331  -33.2732   56.5160 H   0  0
   -2.4295  -32.7671   55.2247 H   0  0
   -3.7880  -33.4525   53.4800 H   0  0
   -5.1921  -33.9570   54.7709 H   0  0
   -4.9127  -31.4817   52.2611 H   0  0
   -4.2179  -29.5161   50.9018 H   0  0
   -1.5700  -26.5479   53.2507 H   0  0
   -3.0982  -25.7399   52.9834 H   0  0
   -1.5754  -24.2293   52.0858 H   0  0
   -0.5098  -25.4699   51.4924 H   0  0
  1  2  1  0
  2  3  1  0
  2  4  1  0
  4  5  2  0
  4  9  1  0
  5  6  1  0
  6  7  2  0
  7  8  1  0
  8  9  2  0
  9 10  1  0
 10 11  1  0
 10 19  1  0
 10 35  1  0
 11 12  2  0
 11 13  1  0
 13 14  1  0
 14 15  1  0
 14 18  1  0
 15 16  1  0
 16 17  1  0
 17 18  1  0
 19 20  1  0
 20 21  1  0
 21 22  1  0
 21 34  1  0
 22 23  2  0
 22 33  1  0
 23 24  1  0
 24 25  2  0
 25 26  1  0
 25 32  1  0
 26 27  1  0
 26 30  1  0
 26 31  1  0
 27 28  2  0
 27 29  1  0
 30 31  1  0
 32 33  2  0
 34 35  1  0
  1 36  1  0
  1 37  1  0
  1 38  1  0
  2 39  1  0
  3 40  1  0
  3 41  1  0
  3 42  1  0
  5 43  1  0
  6 44  1  0
  7 45  1  0
  8 46  1  0
 13 47  1  0
 14 48  1  0
 15 49  1  0
 16 50  1  0
 16 51  1  0
 17 52  1  0
 17 53  1  0
 18 54  1  0
 19 55  1  0
 19 56  1  0
 20 57  1  0
 20 58  1  0
 23 59  1  0
 24 60  1  0
 29 61  1  0
 30 62  1  0
 30 63  1  0
 31 64  1  0
 31 65  1  0
 32 66  1  0
 33 67  1  0
 34 68  1  0
 34 69  1  0
 35 70  1  0
 35 71  1  0
M  END
> <Name>
Molecule

> <AbsoluteEnergy>
58.6128

> <Clean Energy>
225.967

> <ConfNumber>
45

> <MOL_NUMBER>
5

> <RelativeEnergy>
10.3106

> <POSE_NUMBER>
13

> <LibDockScore>
130.0388

> <HotSpots>
-5.33,-24.12,49.78,A,36,7
4.07,-23.72,49.78,A,37,17
-4.33,-32.92,55.19,A,75,30

$$$$
Molecule
  SciTegic05072616053D

 71 75  0  0  0  0            999 V2000
   -2.5143  -24.1053   46.9283 C   0  0  0  1  0  0
   -3.9502  -24.4381   47.3790 C   0  0  0  1  0  0
   -4.9063  -24.2199   46.1820 C   0  0  0  1  0  0
   -4.3238  -23.7197   48.6665 C   0  0  0  1  0  0
   -5.3687  -22.7629   48.5812 C   0  0  0  1  0  0
   -5.7960  -22.0288   49.6892 C   0  0  0  1  0  0
   -5.1780  -22.2218   50.9207 C   0  0  0  1  0  0
   -4.1399  -23.1501   51.0381 C   0  0  0  1  0  0
   -3.6833  -23.9369   49.9443 C   0  0  0  1  0  0
   -2.5145  -24.9150   50.2380 C   0  0  0  1  0  0
   -1.2274  -24.3582   49.6050 C   0  0  0  1  0  0
   -1.2653  -23.3899   48.8770 O   0  0  0  1  0  0
   -0.0037  -24.9479   49.8487 N   0  0  0  1  0  0
    1.2235  -24.4852   49.1556 C   0  0  0  1  0  0
    1.5978  -23.1575   49.6510 N   0  0  0  1  0  0
    3.0128  -23.2109   49.9714 C   0  0  0  1  0  0
    3.2624  -24.6697   50.2925 C   0  0  0  1  0  0
    2.3425  -25.3970   49.4316 N   0  0  0  1  0  0
   -2.7432  -26.3932   49.7931 C   0  0  0  1  0  0
   -3.9664  -27.0620   50.4581 C   0  0  0  1  0  0
   -3.8327  -27.0405   51.9454 N   0  0  0  1  0  0
   -4.0422  -28.1798   52.7227 C   0  0  0  1  0  0
   -5.0366  -29.1204   52.3660 C   0  0  0  1  0  0
   -5.2477  -30.2742   53.1394 C   0  0  0  1  0  0
   -4.4748  -30.5062   54.2901 C   0  0  0  1  0  0
   -4.7013  -31.7439   55.1251 C   0  0  0  1  0  0
   -3.9695  -32.9614   54.5867 C   0  0  0  1  0  0
   -2.9208  -33.2909   55.0924 O   0  0  0  1  0  0
   -4.5033  -33.6362   53.5701 O   0  0  0  1  0  0
   -6.0545  -31.9589   55.7853 C   0  0  0  1  0  0
   -4.8559  -31.6091   56.6326 C   0  0  0  1  0  0
   -3.4854  -29.5788   54.6574 C   0  0  0  1  0  0
   -3.2684  -28.4296   53.8801 C   0  0  0  1  0  0
   -3.4530  -25.7188   52.5311 C   0  0  0  1  0  0
   -2.2581  -25.0966   51.7773 C   0  0  0  1  0  0
   -2.4579  -23.0658   46.6054 H   0  0
   -2.2214  -24.7602   46.1076 H   0  0
   -1.8332  -24.2563   47.7658 H   0  0
   -4.0365  -25.4885   47.6570 H   0  0
   -4.6250  -24.8753   45.3577 H   0  0
   -4.8615  -23.1809   45.8555 H   0  0
   -5.9251  -24.4530   46.4916 H   0  0
   -5.8533  -22.5958   47.6193 H   0  0
   -6.6086  -21.3091   49.5901 H   0  0
   -5.5023  -21.6510   51.7908 H   0  0
   -3.6599  -23.2766   52.0085 H   0  0
    0.0610  -25.7533   50.5502 H   0  0
    1.0192  -24.4566   48.0853 H   0  0
    1.4257  -22.4246   48.8906 H   0  0
    3.2263  -22.5940   50.8443 H   0  0
    3.6065  -22.9110   49.1079 H   0  0
    4.2916  -24.9349   50.0507 H   0  0
    3.0322  -24.8677   51.3393 H   0  0
    1.9847  -26.2697   49.9368 H   0  0
   -2.8734  -26.4195   48.7112 H   0  0
   -1.8527  -26.9754   50.0301 H   0  0
   -4.8712  -26.5266   50.1704 H   0  0
   -4.0429  -28.0950   50.1188 H   0  0
   -5.6470  -28.9478   51.4796 H   0  0
   -6.0137  -30.9920   52.8459 H   0  0
   -4.6294  -32.9270   52.8061 H   0  0
   -6.3016  -33.0182   55.8556 H   0  0
   -6.7101  -31.1001   55.6414 H   0  0
   -4.8725  -30.5638   56.9411 H   0  0
   -4.4630  -32.4819   57.1540 H   0  0
   -2.8836  -29.7521   55.5496 H   0  0
   -2.4936  -27.7209   54.1724 H   0  0
   -3.1850  -25.8533   53.5790 H   0  0
   -4.3056  -25.0422   52.4726 H   0  0
   -2.0329  -24.1246   52.2162 H   0  0
   -1.3839  -25.7324   51.9174 H   0  0
  1  2  1  0
  2  3  1  0
  2  4  1  0
  4  5  2  0
  4  9  1  0
  5  6  1  0
  6  7  2  0
  7  8  1  0
  8  9  2  0
  9 10  1  0
 10 11  1  0
 10 19  1  0
 10 35  1  0
 11 12  2  0
 11 13  1  0
 13 14  1  0
 14 15  1  0
 14 18  1  0
 15 16  1  0
 16 17  1  0
 17 18  1  0
 19 20  1  0
 20 21  1  0
 21 22  1  0
 21 34  1  0
 22 23  2  0
 22 33  1  0
 23 24  1  0
 24 25  2  0
 25 26  1  0
 25 32  1  0
 26 27  1  0
 26 30  1  0
 26 31  1  0
 27 28  2  0
 27 29  1  0
 30 31  1  0
 32 33  2  0
 34 35  1  0
  1 36  1  0
  1 37  1  0
  1 38  1  0
  2 39  1  0
  3 40  1  0
  3 41  1  0
  3 42  1  0
  5 43  1  0
  6 44  1  0
  7 45  1  0
  8 46  1  0
 13 47  1  0
 14 48  1  0
 15 49  1  0
 16 50  1  0
 16 51  1  0
 17 52  1  0
 17 53  1  0
 18 54  1  0
 19 55  1  0
 19 56  1  0
 20 57  1  0
 20 58  1  0
 23 59  1  0
 24 60  1  0
 29 61  1  0
 30 62  1  0
 30 63  1  0
 31 64  1  0
 31 65  1  0
 32 66  1  0
 33 67  1  0
 34 68  1  0
 34 69  1  0
 35 70  1  0
 35 71  1  0
M  END
> <Name>
Molecule

> <AbsoluteEnergy>
59.2153

> <Clean Energy>
225.967

> <ConfNumber>
53

> <MOL_NUMBER>
5

> <RelativeEnergy>
10.9131

> <POSE_NUMBER>
14

> <LibDockScore>
129.6066

> <HotSpots>
-5.53,-22.92,48.98,A,33,5
2.47,-25.32,48.78,P,32,18
-3.53,-33.92,53.38,P,44,29

$$$$
Molecule
  SciTegic05072616053D

 71 75  0  0  0  0            999 V2000
    1.6700  -25.5632   47.9448 C   0  0  0  1  0  0
    0.4900  -24.6750   48.4041 C   0  0  0  1  0  0
    0.6504  -23.2577   47.8059 C   0  0  0  1  0  0
    0.3433  -24.6349   49.9163 C   0  0  0  1  0  0
    1.4708  -24.1217   50.6047 C   0  0  0  1  0  0
    1.5450  -24.1191   51.9987 C   0  0  0  1  0  0
    0.4876  -24.6393   52.7412 C   0  0  0  1  0  0
   -0.6564  -25.1139   52.0893 C   0  0  0  1  0  0
   -0.8043  -25.0742   50.6778 C   0  0  0  1  0  0
   -2.1765  -25.5350   50.1298 C   0  0  0  1  0  0
   -2.4655  -25.1912   48.6542 C   0  0  0  1  0  0
   -2.6188  -26.0805   47.8443 O   0  0  0  1  0  0
   -2.5679  -23.8787   48.2139 N   0  0  0  1  0  0
   -2.8513  -23.5848   46.7853 C   0  0  0  1  0  0
   -4.2548  -23.9213   46.5191 N   0  0  0  1  0  0
   -4.8258  -22.8095   45.7854 C   0  0  0  1  0  0
   -4.0093  -21.6199   46.2516 C   0  0  0  1  0  0
   -2.6730  -22.1546   46.4751 N   0  0  0  1  0  0
   -2.2920  -27.0915   50.3563 C   0  0  0  1  0  0
   -3.1019  -27.5376   51.6017 C   0  0  0  1  0  0
   -4.4877  -26.9796   51.6022 N   0  0  0  1  0  0
   -5.5490  -27.5885   52.2834 C   0  0  0  1  0  0
   -5.3750  -28.7821   53.0330 C   0  0  0  1  0  0
   -6.4408  -29.3421   53.7603 C   0  0  0  1  0  0
   -7.6988  -28.7177   53.7681 C   0  0  0  1  0  0
   -8.8171  -29.2772   54.6223 C   0  0  0  1  0  0
   -8.8242  -28.7151   56.0465 C   0  0  0  1  0  0
   -9.8257  -28.8186   56.7305 O   0  0  0  1  0  0
   -7.7223  -28.1196   56.5036 O   0  0  0  1  0  0
   -9.2274  -30.7263   54.4104 C   0  0  0  1  0  0
  -10.1492  -29.6190   53.9633 C   0  0  0  1  0  0
   -7.8998  -27.5683   52.9894 C   0  0  0  1  0  0
   -6.8419  -27.0152   52.2501 C   0  0  0  1  0  0
   -4.6696  -25.7040   50.8433 C   0  0  0  1  0  0
   -3.3863  -24.8572   50.8840 C   0  0  0  1  0  0
    2.6089  -25.1289   48.2882 H   0  0
    1.6763  -25.6276   46.8567 H   0  0
    1.5582  -26.5624   48.3657 H   0  0
   -0.4338  -25.1170   48.0307 H   0  0
    0.6556  -23.3194   46.7177 H   0  0
    1.5881  -22.8207   48.1492 H   0  0
   -0.1806  -22.6307   48.1288 H   0  0
    2.3037  -23.7175   50.0293 H   0  0
    2.4228  -23.7135   52.5017 H   0  0
    0.5510  -24.6767   53.8287 H   0  0
   -1.4657  -25.5304   52.6889 H   0  0
   -2.4420  -23.0738   48.9075 H   0  0
   -2.1606  -24.1666   46.1749 H   0  0
   -4.3083  -24.8113   45.9276 H   0  0
   -5.8730  -22.6745   46.0558 H   0  0
   -4.6954  -22.9569   44.7133 H   0  0
   -3.9826  -20.8570   45.4735 H   0  0
   -4.4168  -21.2279   47.1835 H   0  0
   -2.2151  -21.6562   47.3038 H   0  0
   -1.2873  -27.5074   50.4314 H   0  0
   -2.7460  -27.5378   49.4716 H   0  0
   -2.5852  -27.2061   52.5024 H   0  0
   -3.1570  -28.6260   51.6207 H   0  0
   -4.4011  -29.2715   53.0449 H   0  0
   -6.2897  -30.2649   54.3204 H   0  0
   -7.5172  -27.3527   55.8164 H   0  0
   -9.5697  -31.1850   55.3380 H   0  0
   -8.6969  -31.1728   53.5694 H   0  0
  -10.1096  -29.4732   52.8838 H   0  0
  -10.9817  -29.4843   54.6539 H   0  0
   -8.8842  -27.1013   52.9580 H   0  0
   -7.0198  -26.1294   51.6404 H   0  0
   -5.4892  -25.1359   51.2833 H   0  0
   -4.9161  -25.9338   49.8067 H   0  0
   -3.5892  -23.8866   50.4313 H   0  0
   -3.1068  -24.6890   51.9240 H   0  0
  1  2  1  0
  2  3  1  0
  2  4  1  0
  4  5  2  0
  4  9  1  0
  5  6  1  0
  6  7  2  0
  7  8  1  0
  8  9  2  0
  9 10  1  0
 10 11  1  0
 10 19  1  0
 10 35  1  0
 11 12  2  0
 11 13  1  0
 13 14  1  0
 14 15  1  0
 14 18  1  0
 15 16  1  0
 16 17  1  0
 17 18  1  0
 19 20  1  0
 20 21  1  0
 21 22  1  0
 21 34  1  0
 22 23  2  0
 22 33  1  0
 23 24  1  0
 24 25  2  0
 25 26  1  0
 25 32  1  0
 26 27  1  0
 26 30  1  0
 26 31  1  0
 27 28  2  0
 27 29  1  0
 30 31  1  0
 32 33  2  0
 34 35  1  0
  1 36  1  0
  1 37  1  0
  1 38  1  0
  2 39  1  0
  3 40  1  0
  3 41  1  0
  3 42  1  0
  5 43  1  0
  6 44  1  0
  7 45  1  0
  8 46  1  0
 13 47  1  0
 14 48  1  0
 15 49  1  0
 16 50  1  0
 16 51  1  0
 17 52  1  0
 17 53  1  0
 18 54  1  0
 19 55  1  0
 19 56  1  0
 20 57  1  0
 20 58  1  0
 23 59  1  0
 24 60  1  0
 29 61  1  0
 30 62  1  0
 30 63  1  0
 31 64  1  0
 31 65  1  0
 32 66  1  0
 33 67  1  0
 34 68  1  0
 34 69  1  0
 35 70  1  0
 35 71  1  0
M  END
> <Name>
Molecule

> <AbsoluteEnergy>
63.1835

> <Clean Energy>
225.967

> <ConfNumber>
81

> <MOL_NUMBER>
5

> <RelativeEnergy>
14.8814

> <POSE_NUMBER>
15

> <LibDockScore>
129.2657

> <HotSpots>
1.67,-24.32,50.98,A,50,5
-3.53,-22.32,46.59,A,20,17
-7.73,-27.92,56.98,P,70,29

$$$$
Molecule
  SciTegic05072616053D

 71 75  0  0  0  0            999 V2000
   -1.0575  -26.1069   45.8623 C   0  0  0  1  0  0
   -0.5352  -24.6989   46.1840 C   0  0  0  1  0  0
    0.9825  -24.6429   46.4405 C   0  0  0  1  0  0
   -1.3762  -23.8243   47.1123 C   0  0  0  1  0  0
   -1.7459  -22.5797   46.5405 C   0  0  0  1  0  0
   -2.5269  -21.6467   47.2247 C   0  0  0  1  0  0
   -2.9662  -21.9343   48.5133 C   0  0  0  1  0  0
   -2.6145  -23.1472   49.1133 C   0  0  0  1  0  0
   -1.8100  -24.1213   48.4595 C   0  0  0  1  0  0
   -1.4755  -25.4048   49.2441 C   0  0  0  1  0  0
    0.0051  -25.7825   49.1310 C   0  0  0  1  0  0
    0.3375  -26.8743   48.7316 O   0  0  0  1  0  0
    0.9785  -24.8795   49.5143 N   0  0  0  1  0  0
    2.4258  -25.1190   49.2286 C   0  0  0  1  0  0
    3.1615  -25.4345   50.4560 N   0  0  0  1  0  0
    3.5771  -24.1568   51.0072 C   0  0  0  1  0  0
    3.8242  -23.2875   49.7856 C   0  0  0  1  0  0
    3.0905  -23.9217   48.6941 N   0  0  0  1  0  0
   -2.4876  -26.5260   48.8586 C   0  0  0  1  0  0
   -2.2836  -27.8768   49.5777 C   0  0  0  1  0  0
   -2.1670  -27.7417   51.0636 N   0  0  0  1  0  0
   -2.7313  -28.6672   51.9412 C   0  0  0  1  0  0
   -2.3218  -28.7025   53.2948 C   0  0  0  1  0  0
   -2.8734  -29.6321   54.1911 C   0  0  0  1  0  0
   -3.8449  -30.5474   53.7516 C   0  0  0  1  0  0
   -4.4329  -31.5524   54.7124 C   0  0  0  1  0  0
   -4.0466  -32.9833   54.3771 C   0  0  0  1  0  0
   -4.4017  -33.4571   53.3221 O   0  0  0  1  0  0
   -3.3264  -33.6795   55.2552 O   0  0  0  1  0  0
   -5.8110  -31.2982   55.3039 C   0  0  0  1  0  0
   -4.5878  -31.1792   56.1788 C   0  0  0  1  0  0
   -4.2633  -30.5223   52.4104 C   0  0  0  1  0  0
   -3.7165  -29.5884   51.5148 C   0  0  0  1  0  0
   -1.3844  -26.5754   51.5723 C   0  0  0  1  0  0
   -1.7057  -25.2859   50.7916 C   0  0  0  1  0  0
   -0.8035  -26.7523   46.7032 H   0  0
   -0.5232  -26.4629   44.9815 H   0  0
   -2.1334  -26.1027   45.6878 H   0  0
   -0.6941  -24.1826   45.2373 H   0  0
    1.4813  -25.0244   45.5496 H   0  0
    1.2010  -25.3138   47.2713 H   0  0
    1.3115  -23.6282   46.6646 H   0  0
   -1.4082  -22.3437   45.5314 H   0  0
   -2.7906  -20.7000   46.7531 H   0  0
   -3.5828  -21.2159   49.0535 H   0  0
   -2.9710  -23.3546   50.1223 H   0  0
    0.6888  -23.9869   50.0283 H   0  0
    2.4411  -25.9389   48.5105 H   0  0
    2.5193  -25.9388   51.1475 H   0  0
    4.4996  -24.2728   51.5760 H   0  0
    2.7783  -23.7304   51.6141 H   0  0
    4.8891  -23.2642   49.5542 H   0  0
    3.4380  -22.2832   49.9599 H   0  0
    2.3579  -23.2425   48.3109 H   0  0
   -2.4297  -26.6937   47.7831 H   0  0
   -3.4967  -26.1708   49.0676 H   0  0
   -1.3793  -28.3500   49.1950 H   0  0
   -3.1247  -28.5310   49.3482 H   0  0
   -1.5678  -27.9985   53.6468 H   0  0
   -2.5470  -29.6438   55.2310 H   0  0
   -3.8835  -33.6578   56.1450 H   0  0
   -6.3465  -32.2301   55.4854 H   0  0
   -6.1957  -30.3203   55.0145 H   0  0
   -4.3202  -30.1377   56.3570 H   0  0
   -4.4701  -32.0479   56.8266 H   0  0
   -5.0155  -31.2307   52.0634 H   0  0
   -4.0554  -29.5734   50.4789 H   0  0
   -1.6164  -26.4220   52.6262 H   0  0
   -0.3199  -26.7916   51.4818 H   0  0
   -1.0854  -24.4776   51.1789 H   0  0
   -2.7457  -25.0155   50.9743 H   0  0
  1  2  1  0
  2  3  1  0
  2  4  1  0
  4  5  2  0
  4  9  1  0
  5  6  1  0
  6  7  2  0
  7  8  1  0
  8  9  2  0
  9 10  1  0
 10 11  1  0
 10 19  1  0
 10 35  1  0
 11 12  2  0
 11 13  1  0
 13 14  1  0
 14 15  1  0
 14 18  1  0
 15 16  1  0
 16 17  1  0
 17 18  1  0
 19 20  1  0
 20 21  1  0
 21 22  1  0
 21 34  1  0
 22 23  2  0
 22 33  1  0
 23 24  1  0
 24 25  2  0
 25 26  1  0
 25 32  1  0
 26 27  1  0
 26 30  1  0
 26 31  1  0
 27 28  2  0
 27 29  1  0
 30 31  1  0
 32 33  2  0
 34 35  1  0
  1 36  1  0
  1 37  1  0
  1 38  1  0
  2 39  1  0
  3 40  1  0
  3 41  1  0
  3 42  1  0
  5 43  1  0
  6 44  1  0
  7 45  1  0
  8 46  1  0
 13 47  1  0
 14 48  1  0
 15 49  1  0
 16 50  1  0
 16 51  1  0
 17 52  1  0
 17 53  1  0
 18 54  1  0
 19 55  1  0
 19 56  1  0
 20 57  1  0
 20 58  1  0
 23 59  1  0
 24 60  1  0
 29 61  1  0
 30 62  1  0
 30 63  1  0
 31 64  1  0
 31 65  1  0
 32 66  1  0
 33 67  1  0
 34 68  1  0
 34 69  1  0
 35 70  1  0
 35 71  1  0
M  END
> <Name>
Molecule

> <AbsoluteEnergy>
62.1673

> <Clean Energy>
225.967

> <ConfNumber>
74

> <MOL_NUMBER>
5

> <RelativeEnergy>
13.8651

> <POSE_NUMBER>
16

> <LibDockScore>
128.675

> <HotSpots>
-3.53,-22.32,46.59,A,20,5
2.67,-22.92,49.98,A,39,17
-4.13,-31.12,56.59,A,79,31

$$$$
Molecule
  SciTegic05072616053D

 71 75  0  0  0  0            999 V2000
   -5.5819  -23.2932   48.5545 C   0  0  0  1  0  0
   -5.1016  -23.3767   47.0870 C   0  0  0  1  0  0
   -5.3255  -24.7183   46.3543 C   0  0  0  1  0  0
   -3.7890  -22.6893   46.7263 C   0  0  0  1  0  0
   -3.9440  -21.6518   45.7715 C   0  0  0  1  0  0
   -2.8738  -20.8701   45.3360 C   0  0  0  1  0  0
   -1.6032  -21.1011   45.8525 C   0  0  0  1  0  0
   -1.4087  -22.1231   46.7855 C   0  0  0  1  0  0
   -2.4617  -22.9717   47.2331 C   0  0  0  1  0  0
   -2.0604  -24.0864   48.2248 C   0  0  0  1  0  0
   -0.5329  -24.3504   48.1971 C   0  0  0  1  0  0
   -0.0200  -24.7598   47.1777 O   0  0  0  1  0  0
    0.2787  -24.1491   49.2976 N   0  0  0  1  0  0
    1.7418  -24.3649   49.2177 C   0  0  0  1  0  0
    2.4672  -23.0997   49.2610 N   0  0  0  1  0  0
    3.7651  -23.4278   49.8188 C   0  0  0  1  0  0
    3.4965  -24.5827   50.7695 C   0  0  0  1  0  0
    2.2027  -25.1278   50.3780 N   0  0  0  1  0  0
   -2.6300  -25.5019   47.8759 C   0  0  0  1  0  0
   -2.3751  -26.5561   48.9715 C   0  0  0  1  0  0
   -2.9549  -26.0699   50.2516 N   0  0  0  1  0  0
   -3.9844  -26.7353   50.9118 C   0  0  0  1  0  0
   -4.0892  -28.1440   50.8596 C   0  0  0  1  0  0
   -5.1534  -28.8086   51.4919 C   0  0  0  1  0  0
   -6.1274  -28.0793   52.1953 C   0  0  0  1  0  0
   -7.2869  -28.7925   52.8493 C   0  0  0  1  0  0
   -7.9186  -29.8340   51.9404 C   0  0  0  1  0  0
   -7.3567  -30.8937   51.7820 O   0  0  0  1  0  0
   -9.0750  -29.5527   51.3410 O   0  0  0  1  0  0
   -8.1922  -28.0258   53.7994 C   0  0  0  1  0  0
   -7.2519  -29.0726   54.3441 C   0  0  0  1  0  0
   -6.0183  -26.6803   52.2786 C   0  0  0  1  0  0
   -4.9578  -26.0151   51.6422 C   0  0  0  1  0  0
   -2.3744  -24.7873   50.7286 C   0  0  0  1  0  0
   -2.5425  -23.6849   49.6608 C   0  0  0  1  0  0
   -5.0702  -24.0946   49.0874 H   0  0
   -6.6451  -23.5328   48.5400 H   0  0
   -5.3921  -22.3200   49.0073 H   0  0
   -5.8448  -22.7098   46.6501 H   0  0
   -6.3962  -24.9163   46.4040 H   0  0
   -4.8213  -25.4781   46.9515 H   0  0
   -4.9634  -24.7049   45.3263 H   0  0
   -4.9359  -21.4582   45.3630 H   0  0
   -3.0320  -20.0847   44.5970 H   0  0
   -0.7621  -20.4871   45.5306 H   0  0
   -0.4077  -22.2777   47.1883 H   0  0
   -0.1570  -23.8323   50.2221 H   0  0
    1.9295  -24.8899   48.2811 H   0  0
    2.5817  -22.7083   48.2717 H   0  0
    4.1641  -22.5764   50.3702 H   0  0
    4.4442  -23.7463   49.0279 H   0  0
    3.4511  -24.2174   51.7955 H   0  0
    4.2697  -25.3429   50.6581 H   0  0
    2.3101  -26.1593   50.1147 H   0  0
   -2.1786  -25.8457   46.9452 H   0  0
   -3.7042  -25.4193   47.7102 H   0  0
   -1.3023  -26.7067   49.0916 H   0  0
   -2.8496  -27.4963   48.6905 H   0  0
   -3.3361  -28.7210   50.3229 H   0  0
   -5.2240  -29.8949   51.4367 H   0  0
   -8.8964  -28.6687   50.8033 H   0  0
   -9.2185  -28.3904   53.7561 H   0  0
   -7.8199  -27.0174   53.9798 H   0  0
   -6.3780  -28.6225   54.8151 H   0  0
   -7.7763  -29.9960   54.5898 H   0  0
   -6.7592  -26.1100   52.8389 H   0  0
   -4.8840  -24.9298   51.7121 H   0  0
   -2.8798  -24.4815   51.6447 H   0  0
   -1.3139  -24.9265   50.9385 H   0  0
   -1.9900  -22.8017   49.9815 H   0  0
   -3.5946  -23.4043   49.6123 H   0  0
  1  2  1  0
  2  3  1  0
  2  4  1  0
  4  5  2  0
  4  9  1  0
  5  6  1  0
  6  7  2  0
  7  8  1  0
  8  9  2  0
  9 10  1  0
 10 11  1  0
 10 19  1  0
 10 35  1  0
 11 12  2  0
 11 13  1  0
 13 14  1  0
 14 15  1  0
 14 18  1  0
 15 16  1  0
 16 17  1  0
 17 18  1  0
 19 20  1  0
 20 21  1  0
 21 22  1  0
 21 34  1  0
 22 23  2  0
 22 33  1  0
 23 24  1  0
 24 25  2  0
 25 26  1  0
 25 32  1  0
 26 27  1  0
 26 30  1  0
 26 31  1  0
 27 28  2  0
 27 29  1  0
 30 31  1  0
 32 33  2  0
 34 35  1  0
  1 36  1  0
  1 37  1  0
  1 38  1  0
  2 39  1  0
  3 40  1  0
  3 41  1  0
  3 42  1  0
  5 43  1  0
  6 44  1  0
  7 45  1  0
  8 46  1  0
 13 47  1  0
 14 48  1  0
 15 49  1  0
 16 50  1  0
 16 51  1  0
 17 52  1  0
 17 53  1  0
 18 54  1  0
 19 55  1  0
 19 56  1  0
 20 57  1  0
 20 58  1  0
 23 59  1  0
 24 60  1  0
 29 61  1  0
 30 62  1  0
 30 63  1  0
 31 64  1  0
 31 65  1  0
 32 66  1  0
 33 67  1  0
 34 68  1  0
 34 69  1  0
 35 70  1  0
 35 71  1  0
M  END
> <Name>
Molecule

> <AbsoluteEnergy>
66.1513

> <Clean Energy>
225.967

> <ConfNumber>
93

> <MOL_NUMBER>
5

> <RelativeEnergy>
17.8491

> <POSE_NUMBER>
17

> <LibDockScore>
128.3705

> <HotSpots>
-3.53,-20.52,45.19,A,12,6
3.07,-24.52,50.38,A,43,17
-6.33,-26.32,51.98,A,57,32

$$$$
Molecule
  SciTegic05072616053D

 71 75  0  0  0  0            999 V2000
   -5.5342  -22.0578   45.7464 C   0  0  0  1  0  0
   -4.7433  -23.1096   46.5455 C   0  0  0  1  0  0
   -4.7562  -24.4830   45.8469 C   0  0  0  1  0  0
   -3.3417  -22.6357   46.8572 C   0  0  0  1  0  0
   -2.6400  -22.0229   45.7945 C   0  0  0  1  0  0
   -1.3318  -21.5569   45.9590 C   0  0  0  1  0  0
   -0.6996  -21.6944   47.1959 C   0  0  0  1  0  0
   -1.3785  -22.2916   48.2671 C   0  0  0  1  0  0
   -2.7075  -22.7726   48.1363 C   0  0  0  1  0  0
   -3.4065  -23.4069   49.3489 C   0  0  0  1  0  0
   -3.1965  -24.9340   49.3468 C   0  0  0  1  0  0
   -4.1456  -25.6787   49.4385 O   0  0  0  1  0  0
   -1.9253  -25.4661   49.2425 N   0  0  0  1  0  0
   -1.6201  -26.9291   49.2941 C   0  0  0  1  0  0
   -1.9010  -27.6118   50.5609 N   0  0  0  1  0  0
   -1.8253  -29.0194   50.2021 C   0  0  0  1  0  0
   -2.2492  -29.0898   48.7381 C   0  0  0  1  0  0
   -2.3248  -27.7071   48.2736 N   0  0  0  1  0  0
   -4.9348  -23.0107   49.3348 C   0  0  0  1  0  0
   -5.6384  -22.9880   50.7154 C   0  0  0  1  0  0
   -4.9481  -23.9218   51.6363 N   0  0  0  1  0  0
   -5.4975  -25.1411   52.0191 C   0  0  0  1  0  0
   -6.8191  -25.5040   51.6729 C   0  0  0  1  0  0
   -7.2983  -26.7981   51.9418 C   0  0  0  1  0  0
   -6.4644  -27.7418   52.5700 C   0  0  0  1  0  0
   -6.9233  -29.1608   52.7839 C   0  0  0  1  0  0
   -7.6066  -29.3749   54.1255 C   0  0  0  1  0  0
   -8.8000  -29.5658   54.1595 O   0  0  0  1  0  0
   -6.8723  -29.3491   55.2383 O   0  0  0  1  0  0
   -7.3397  -30.0024   51.5876 C   0  0  0  1  0  0
   -6.0220  -30.2751   52.2715 C   0  0  0  1  0  0
   -5.1829  -27.3603   52.9937 C   0  0  0  1  0  0
   -4.7125  -26.0704   52.7352 C   0  0  0  1  0  0
   -3.5654  -23.4830   51.9762 C   0  0  0  1  0  0
   -2.8660  -22.8828   50.7309 C   0  0  0  1  0  0
   -6.5624  -22.4039   45.6409 H   0  0
   -5.0881  -21.9676   44.7560 H   0  0
   -5.5126  -21.0950   46.2570 H   0  0
   -5.2488  -23.2411   47.5022 H   0  0
   -4.3169  -24.3717   44.8556 H   0  0
   -5.7912  -24.8079   45.7405 H   0  0
   -4.1916  -25.2120   46.4281 H   0  0
   -3.1286  -21.9112   44.8266 H   0  0
   -0.8084  -21.0886   45.1255 H   0  0
    0.3217  -21.3375   47.3288 H   0  0
   -0.8717  -22.3893   49.2272 H   0  0
   -1.1072  -24.7879   49.1168 H   0  0
   -0.5426  -26.9061   49.1314 H   0  0
   -1.1505  -27.3730   51.2852 H   0  0
   -2.5137  -29.6002   50.8160 H   0  0
   -0.8017  -29.3781   50.3098 H   0  0
   -3.2277  -29.5631   48.6566 H   0  0
   -1.5022  -29.6353   48.1615 H   0  0
   -1.8305  -27.6098   47.3296 H   0  0
   -5.0337  -22.0248   48.8806 H   0  0
   -5.4687  -23.7058   48.6868 H   0  0
   -5.6006  -21.9791   51.1261 H   0  0
   -6.6779  -23.2948   50.5998 H   0  0
   -7.4720  -24.7746   51.1936 H   0  0
   -8.3163  -27.0707   51.6635 H   0  0
   -6.3909  -28.4161   55.2260 H   0  0
   -7.2025  -29.4620   50.6510 H   0  0
   -8.0950  -30.7392   51.8609 H   0  0
   -6.0748  -31.1574   52.9094 H   0  0
   -5.1825  -29.8788   51.7003 H   0  0
   -4.5522  -28.0722   53.5262 H   0  0
   -3.7250  -25.7774   53.0917 H   0  0
   -3.6090  -22.7300   52.7631 H   0  0
   -2.9922  -24.3382   52.3342 H   0  0
   -1.7993  -23.0982   50.7933 H   0  0
   -2.9733  -21.7985   50.7607 H   0  0
  1  2  1  0
  2  3  1  0
  2  4  1  0
  4  5  2  0
  4  9  1  0
  5  6  1  0
  6  7  2  0
  7  8  1  0
  8  9  2  0
  9 10  1  0
 10 11  1  0
 10 19  1  0
 10 35  1  0
 11 12  2  0
 11 13  1  0
 13 14  1  0
 14 15  1  0
 14 18  1  0
 15 16  1  0
 16 17  1  0
 17 18  1  0
 19 20  1  0
 20 21  1  0
 21 22  1  0
 21 34  1  0
 22 23  2  0
 22 33  1  0
 23 24  1  0
 24 25  2  0
 25 26  1  0
 25 32  1  0
 26 27  1  0
 26 30  1  0
 26 31  1  0
 27 28  2  0
 27 29  1  0
 30 31  1  0
 32 33  2  0
 34 35  1  0
  1 36  1  0
  1 37  1  0
  1 38  1  0
  2 39  1  0
  3 40  1  0
  3 41  1  0
  3 42  1  0
  5 43  1  0
  6 44  1  0
  7 45  1  0
  8 46  1  0
 13 47  1  0
 14 48  1  0
 15 49  1  0
 16 50  1  0
 16 51  1  0
 17 52  1  0
 17 53  1  0
 18 54  1  0
 19 55  1  0
 19 56  1  0
 20 57  1  0
 20 58  1  0
 23 59  1  0
 24 60  1  0
 29 61  1  0
 30 62  1  0
 30 63  1  0
 31 64  1  0
 31 65  1  0
 32 66  1  0
 33 67  1  0
 34 68  1  0
 34 69  1  0
 35 70  1  0
 35 71  1  0
M  END
> <Name>
Molecule

> <AbsoluteEnergy>
59.0036

> <Clean Energy>
225.967

> <ConfNumber>
48

> <MOL_NUMBER>
5

> <RelativeEnergy>
10.7014

> <POSE_NUMBER>
18

> <LibDockScore>
128.3244

> <HotSpots>
-2.53,-21.12,45.98,A,16,6
-1.93,-29.12,49.19,A,34,16
-5.13,-23.32,51.38,A,54,20

$$$$
Molecule
  SciTegic05072616053D

 71 75  0  0  0  0            999 V2000
   -1.9866  -22.4075   48.7613 C   0  0  0  1  0  0
   -3.3802  -22.9615   48.3946 C   0  0  0  1  0  0
   -4.3938  -23.0591   49.5550 C   0  0  0  1  0  0
   -3.4585  -24.1304   47.4207 C   0  0  0  1  0  0
   -4.4207  -23.9502   46.3957 C   0  0  0  1  0  0
   -4.6008  -24.8836   45.3731 C   0  0  0  1  0  0
   -3.8119  -26.0308   45.3457 C   0  0  0  1  0  0
   -2.8676  -26.2493   46.3539 C   0  0  0  1  0  0
   -2.6805  -25.3480   47.4376 C   0  0  0  1  0  0
   -1.6538  -25.7372   48.5240 C   0  0  0  1  0  0
   -0.2724  -25.1761   48.1502 C   0  0  0  1  0  0
   -0.0897  -24.6671   47.0656 O   0  0  0  1  0  0
    0.7838  -25.2360   49.0368 N   0  0  0  1  0  0
    2.0942  -24.6215   48.7101 C   0  0  0  1  0  0
    2.0021  -23.1659   48.8714 N   0  0  0  1  0  0
    3.0588  -22.7649   49.7854 C   0  0  0  1  0  0
    3.3720  -24.0232   50.5700 C   0  0  0  1  0  0
    3.1324  -25.1065   49.6295 N   0  0  0  1  0  0
   -1.4321  -27.2847   48.6730 C   0  0  0  1  0  0
   -2.6589  -28.1000   49.1533 C   0  0  0  1  0  0
   -3.2757  -27.5155   50.3795 N   0  0  0  1  0  0
   -3.6736  -28.3107   51.4528 C   0  0  0  1  0  0
   -3.6715  -29.7202   51.3376 C   0  0  0  1  0  0
   -4.0757  -30.5310   52.4111 C   0  0  0  1  0  0
   -4.4938  -29.9478   53.6197 C   0  0  0  1  0  0
   -4.9343  -30.8186   54.7719 C   0  0  0  1  0  0
   -3.8202  -31.0832   55.7710 C   0  0  0  1  0  0
   -3.4810  -30.1982   56.5225 O   0  0  0  1  0  0
   -3.2454  -32.2851   55.7935 O   0  0  0  1  0  0
   -5.9473  -31.9257   54.5206 C   0  0  0  1  0  0
   -6.3571  -30.6977   55.2960 C   0  0  0  1  0  0
   -4.4960  -28.5483   53.7494 C   0  0  0  1  0  0
   -4.0866  -27.7375   52.6781 C   0  0  0  1  0  0
   -3.4432  -26.0337   50.3698 C   0  0  0  1  0  0
   -2.1364  -25.3375   49.9537 C   0  0  0  1  0  0
   -1.5899  -23.0547   49.5435 H   0  0
   -2.1477  -21.4200   49.1938 H   0  0
   -1.3177  -22.3632   47.9018 H   0  0
   -3.7233  -22.1306   47.7782 H   0  0
   -4.4933  -22.0549   49.9672 H   0  0
   -3.9355  -23.6896   50.3169 H   0  0
   -5.3565  -23.4564   49.2335 H   0  0
   -5.0404  -23.0535   46.4061 H   0  0
   -5.3530  -24.7157   44.6023 H   0  0
   -3.9300  -26.7563   44.5409 H   0  0
   -2.2503  -27.1465   46.3070 H   0  0
    0.6554  -25.7338   49.9752 H   0  0
    2.3509  -24.8872   47.6846 H   0  0
    2.1420  -22.6872   47.9247 H   0  0
    2.7007  -21.9850   50.4575 H   0  0
    3.9381  -22.4442   49.2268 H   0  0
    4.4168  -24.0200   50.8807 H   0  0
    2.6987  -24.1108   51.4227 H   0  0
    2.7818  -25.9720   50.1519 H   0  0
   -1.1080  -27.6828   47.7114 H   0  0
   -0.6116  -27.4529   49.3705 H   0  0
   -3.4041  -28.1260   48.3582 H   0  0
   -2.3484  -29.1232   49.3649 H   0  0
   -3.3522  -30.1833   50.4040 H   0  0
   -4.0651  -31.6159   52.3065 H   0  0
   -2.8942  -32.4391   54.8160 H   0  0
   -5.7787  -32.7788   55.1777 H   0  0
   -6.3221  -31.8994   53.4974 H   0  0
   -6.9514  -30.0168   54.6867 H   0  0
   -6.4065  -30.8957   56.3667 H   0  0
   -4.8167  -28.0904   54.6851 H   0  0
   -4.0872  -26.6535   52.7924 H   0  0
   -3.7284  -25.6964   51.3663 H   0  0
   -4.2327  -25.7655   49.6678 H   0  0
   -2.2851  -24.2583   49.9894 H   0  0
   -1.3577  -25.5896   50.6736 H   0  0
  1  2  1  0
  2  3  1  0
  2  4  1  0
  4  5  2  0
  4  9  1  0
  5  6  1  0
  6  7  2  0
  7  8  1  0
  8  9  2  0
  9 10  1  0
 10 11  1  0
 10 19  1  0
 10 35  1  0
 11 12  2  0
 11 13  1  0
 13 14  1  0
 14 15  1  0
 14 18  1  0
 15 16  1  0
 16 17  1  0
 17 18  1  0
 19 20  1  0
 20 21  1  0
 21 22  1  0
 21 34  1  0
 22 23  2  0
 22 33  1  0
 23 24  1  0
 24 25  2  0
 25 26  1  0
 25 32  1  0
 26 27  1  0
 26 30  1  0
 26 31  1  0
 27 28  2  0
 27 29  1  0
 30 31  1  0
 32 33  2  0
 34 35  1  0
  1 36  1  0
  1 37  1  0
  1 38  1  0
  2 39  1  0
  3 40  1  0
  3 41  1  0
  3 42  1  0
  5 43  1  0
  6 44  1  0
  7 45  1  0
  8 46  1  0
 13 47  1  0
 14 48  1  0
 15 49  1  0
 16 50  1  0
 16 51  1  0
 17 52  1  0
 17 53  1  0
 18 54  1  0
 19 55  1  0
 19 56  1  0
 20 57  1  0
 20 58  1  0
 23 59  1  0
 24 60  1  0
 29 61  1  0
 30 62  1  0
 30 63  1  0
 31 64  1  0
 31 65  1  0
 32 66  1  0
 33 67  1  0
 34 68  1  0
 34 69  1  0
 35 70  1  0
 35 71  1  0
M  END
> <Name>
Molecule

> <AbsoluteEnergy>
60.6335

> <Clean Energy>
225.967

> <ConfNumber>
65

> <MOL_NUMBER>
5

> <RelativeEnergy>
12.3314

> <POSE_NUMBER>
19

> <LibDockScore>
128.0395

> <HotSpots>
-5.13,-22.92,46.19,A,18,5
2.67,-22.92,49.98,A,39,17
-3.33,-32.52,54.19,P,48,29

$$$$
Molecule
  SciTegic05072616053D

 71 75  0  0  0  0            999 V2000
   -2.3148  -22.2700   49.7650 C   0  0  0  1  0  0
   -3.6927  -22.8038   49.3180 C   0  0  0  1  0  0
   -4.6848  -23.1424   50.4514 C   0  0  0  1  0  0
   -3.7432  -23.7855   48.1542 C   0  0  0  1  0  0
   -4.7426  -23.4786   47.1971 C   0  0  0  1  0  0
   -4.9075  -24.2256   46.0291 C   0  0  0  1  0  0
   -4.0654  -25.3070   45.7828 C   0  0  0  1  0  0
   -3.0825  -25.6496   46.7169 C   0  0  0  1  0  0
   -2.9074  -24.9445   47.9392 C   0  0  0  1  0  0
   -1.8317  -25.4643   48.9183 C   0  0  0  1  0  0
   -0.4679  -24.8567   48.5533 C   0  0  0  1  0  0
   -0.3433  -24.1849   47.5523 O   0  0  0  1  0  0
    0.6382  -25.0581   49.3540 N   0  0  0  1  0  0
    1.9926  -24.6489   48.9069 C   0  0  0  1  0  0
    2.1019  -23.1866   48.9638 N   0  0  0  1  0  0
    3.2609  -22.8717   49.7826 C   0  0  0  1  0  0
    3.4597  -24.1057   50.6397 C   0  0  0  1  0  0
    3.0183  -25.2070   49.7985 N   0  0  0  1  0  0
   -1.6080  -27.0177   48.8607 C   0  0  0  1  0  0
   -2.8132  -27.8905   49.2919 C   0  0  0  1  0  0
   -3.3697  -27.4668   50.6096 N   0  0  0  1  0  0
   -3.7190  -28.3920   51.5919 C   0  0  0  1  0  0
   -4.3235  -29.6196   51.2350 C   0  0  0  1  0  0
   -4.6845  -30.5568   52.2171 C   0  0  0  1  0  0
   -4.4515  -30.2828   53.5759 C   0  0  0  1  0  0
   -4.8449  -31.2872   54.6325 C   0  0  0  1  0  0
   -3.7606  -32.3180   54.8995 C   0  0  0  1  0  0
   -2.9667  -32.1200   55.7903 O   0  0  0  1  0  0
   -3.7129  -33.4148   54.1445 O   0  0  0  1  0  0
   -6.2960  -31.7346   54.7275 C   0  0  0  1  0  0
   -5.7164  -30.8414   55.7968 C   0  0  0  1  0  0
   -3.8468  -29.0687   53.9441 C   0  0  0  1  0  0
   -3.4806  -28.1338   52.9619 C   0  0  0  1  0  0
   -3.5330  -25.9961   50.7944 C   0  0  0  1  0  0
   -2.2452  -25.2492   50.4081 C   0  0  0  1  0  0
   -1.8834  -23.0289   50.4177 H   0  0
   -2.5051  -21.3808   50.3659 H   0  0
   -1.6608  -22.0498   48.9212 H   0  0
   -4.0746  -21.8912   48.8604 H   0  0
   -4.8144  -22.2308   51.0348 H   0  0
   -4.1927  -23.8790   51.0866 H   0  0
   -5.6372  -23.5135   50.0729 H   0  0
   -5.4041  -22.6316   47.3789 H   0  0
   -5.6892  -23.9644   45.3157 H   0  0
   -4.1720  -25.8848   44.8647 H   0  0
   -2.4244  -26.4908   46.4992 H   0  0
    0.5170  -25.5169   50.3130 H   0  0
    2.1429  -25.0145   47.8911 H   0  0
    2.2390  -22.7952   47.9774 H   0  0
    3.0535  -22.0078   50.4141 H   0  0
    4.1349  -22.7101   49.1517 H   0  0
    4.5145  -24.2225   50.8883 H   0  0
    2.8397  -24.0449   51.5342 H   0  0
    2.5939  -25.9806   50.4037 H   0  0
   -1.3309  -27.2906   47.8425 H   0  0
   -0.7560  -27.2700   49.4920 H   0  0
   -3.5951  -27.8184   48.5359 H   0  0
   -2.4962  -28.9313   49.3581 H   0  0
   -4.5117  -29.8414   50.1845 H   0  0
   -5.1468  -31.4996   51.9245 H   0  0
   -3.6394  -33.0648   53.1573 H   0  0
   -6.3747  -32.7679   55.0654 H   0  0
   -6.9315  -31.1778   54.0388 H   0  0
   -6.0436  -29.8083   55.6791 H   0  0
   -5.4854  -31.3983   56.7048 H   0  0
   -3.6613  -28.8517   54.9961 H   0  0
   -3.0070  -27.1981   53.2591 H   0  0
   -3.7699  -25.7877   51.8377 H   0  0
   -4.3539  -25.6440   50.1697 H   0  0
   -2.3888  -24.1835   50.5863 H   0  0
   -1.4342  -25.5876   51.0530 H   0  0
  1  2  1  0
  2  3  1  0
  2  4  1  0
  4  5  2  0
  4  9  1  0
  5  6  1  0
  6  7  2  0
  7  8  1  0
  8  9  2  0
  9 10  1  0
 10 11  1  0
 10 19  1  0
 10 35  1  0
 11 12  2  0
 11 13  1  0
 13 14  1  0
 14 15  1  0
 14 18  1  0
 15 16  1  0
 16 17  1  0
 17 18  1  0
 19 20  1  0
 20 21  1  0
 21 22  1  0
 21 34  1  0
 22 23  2  0
 22 33  1  0
 23 24  1  0
 24 25  2  0
 25 26  1  0
 25 32  1  0
 26 27  1  0
 26 30  1  0
 26 31  1  0
 27 28  2  0
 27 29  1  0
 30 31  1  0
 32 33  2  0
 34 35  1  0
  1 36  1  0
  1 37  1  0
  1 38  1  0
  2 39  1  0
  3 40  1  0
  3 41  1  0
  3 42  1  0
  5 43  1  0
  6 44  1  0
  7 45  1  0
  8 46  1  0
 13 47  1  0
 14 48  1  0
 15 49  1  0
 16 50  1  0
 16 51  1  0
 17 52  1  0
 17 53  1  0
 18 54  1  0
 19 55  1  0
 19 56  1  0
 20 57  1  0
 20 58  1  0
 23 59  1  0
 24 60  1  0
 29 61  1  0
 30 62  1  0
 30 63  1  0
 31 64  1  0
 31 65  1  0
 32 66  1  0
 33 67  1  0
 34 68  1  0
 34 69  1  0
 35 70  1  0
 35 71  1  0
M  END
> <Name>
Molecule

> <AbsoluteEnergy>
60.6335

> <Clean Energy>
225.967

> <ConfNumber>
65

> <MOL_NUMBER>
5

> <RelativeEnergy>
12.3314

> <POSE_NUMBER>
20

> <LibDockScore>
127.4118

> <HotSpots>
-4.33,-26.12,45.19,A,10,7
1.87,-25.32,48.38,A,30,14
3.07,-24.52,50.38,A,43,17

$$$$
Molecule
  SciTegic05072616053D

 71 75  0  0  0  0            999 V2000
   -3.6139  -22.7667   47.0790 C   0  0  0  1  0  0
   -3.8329  -24.0976   47.8247 C   0  0  0  1  0  0
   -4.6059  -25.1067   46.9552 C   0  0  0  1  0  0
   -4.4914  -23.8922   49.1715 C   0  0  0  1  0  0
   -5.8167  -23.4032   49.1626 C   0  0  0  1  0  0
   -6.5062  -23.1534   50.3533 C   0  0  0  1  0  0
   -5.8777  -23.3862   51.5784 C   0  0  0  1  0  0
   -4.5664  -23.8778   51.6107 C   0  0  0  1  0  0
   -3.8449  -24.1617   50.4228 C   0  0  0  1  0  0
   -2.4191  -24.7339   50.4956 C   0  0  0  1  0  0
   -1.4505  -23.8182   49.7271 C   0  0  0  1  0  0
   -1.8112  -22.7328   49.3268 O   0  0  0  1  0  0
   -0.1570  -24.2237   49.4734 N   0  0  0  1  0  0
    0.4580  -24.0238   48.1400 C   0  0  0  1  0  0
   -0.1692  -24.8903   47.1481 N   0  0  0  1  0  0
    0.8318  -25.1084   46.1165 C   0  0  0  1  0  0
    2.1746  -24.8424   46.7848 C   0  0  0  1  0  0
    1.8660  -24.4074   48.1399 N   0  0  0  1  0  0
   -2.4271  -26.2048   49.9257 C   0  0  0  1  0  0
   -1.7203  -27.2444   50.8113 C   0  0  0  1  0  0
   -2.3321  -27.2476   52.1703 N   0  0  0  1  0  0
   -2.8728  -28.3878   52.7714 C   0  0  0  1  0  0
   -3.5490  -29.3763   52.0159 C   0  0  0  1  0  0
   -4.0763  -30.5223   52.6328 C   0  0  0  1  0  0
   -3.9485  -30.7028   54.0201 C   0  0  0  1  0  0
   -4.5173  -31.9388   54.6849 C   0  0  0  1  0  0
   -5.8248  -31.6908   55.4490 C   0  0  0  1  0  0
   -6.4228  -30.6496   55.2974 O   0  0  0  1  0  0
   -6.3044  -32.6179   56.2798 O   0  0  0  1  0  0
   -3.5387  -32.9664   55.2349 C   0  0  0  1  0  0
   -4.3250  -33.2764   53.9829 C   0  0  0  1  0  0
   -3.2924  -29.7250   54.7866 C   0  0  0  1  0  0
   -2.7617  -28.5808   54.1695 C   0  0  0  1  0  0
   -2.3516  -25.9225   52.8540 C   0  0  0  1  0  0
   -1.8254  -24.7816   51.9508 C   0  0  0  1  0  0
   -4.5860  -22.3506   46.8145 H   0  0
   -3.0529  -22.9662   46.1660 H   0  0
   -3.0661  -22.0654   47.7084 H   0  0
   -2.8489  -24.5235   48.0207 H   0  0
   -4.0376  -25.2890   46.0431 H   0  0
   -5.5707  -24.6734   46.6916 H   0  0
   -4.7516  -26.0409   47.4976 H   0  0
   -6.3114  -23.2170   48.2093 H   0  0
   -7.5294  -22.7787   50.3253 H   0  0
   -6.4075  -23.1854   52.5096 H   0  0
   -4.0873  -24.0468   52.5751 H   0  0
    0.4112  -24.6897   50.2511 H   0  0
    0.3302  -22.9669   47.9058 H   0  0
   -1.0256  -24.4055   46.7280 H   0  0
    0.7892  -26.1400   45.7670 H   0  0
    0.6814  -24.4081   45.2949 H   0  0
    2.7631  -25.7594   46.8133 H   0  0
    2.7053  -24.0530   46.2526 H   0  0
    2.4728  -23.5648   48.3982 H   0  0
   -1.9524  -26.2036   48.9445 H   0  0
   -3.4609  -26.5178   49.7792 H   0  0
   -0.6623  -26.9949   50.8914 H   0  0
   -1.8254  -28.2331   50.3646 H   0  0
   -3.6619  -29.2457   50.9397 H   0  0
   -4.5871  -31.2752   52.0325 H   0  0
   -5.5208  -32.7954   56.9558 H   0  0
   -3.9467  -33.4823   56.1041 H   0  0
   -2.5073  -32.6982   55.0061 H   0  0
   -3.7122  -33.1735   53.0873 H   0  0
   -5.1526  -33.9562   54.1855 H   0  0
   -3.1950  -29.8551   55.8644 H   0  0
   -2.2563  -27.8295   54.7763 H   0  0
   -1.7369  -25.9764   53.7525 H   0  0
   -3.3736  -25.6939   53.1562 H   0  0
   -2.0301  -23.8302   52.4417 H   0  0
   -0.7411  -24.8685   51.8808 H   0  0
  1  2  1  0
  2  3  1  0
  2  4  1  0
  4  5  2  0
  4  9  1  0
  5  6  1  0
  6  7  2  0
  7  8  1  0
  8  9  2  0
  9 10  1  0
 10 11  1  0
 10 19  1  0
 10 35  1  0
 11 12  2  0
 11 13  1  0
 13 14  1  0
 14 15  1  0
 14 18  1  0
 15 16  1  0
 16 17  1  0
 17 18  1  0
 19 20  1  0
 20 21  1  0
 21 22  1  0
 21 34  1  0
 22 23  2  0
 22 33  1  0
 23 24  1  0
 24 25  2  0
 25 26  1  0
 25 32  1  0
 26 27  1  0
 26 30  1  0
 26 31  1  0
 27 28  2  0
 27 29  1  0
 30 31  1  0
 32 33  2  0
 34 35  1  0
  1 36  1  0
  1 37  1  0
  1 38  1  0
  2 39  1  0
  3 40  1  0
  3 41  1  0
  3 42  1  0
  5 43  1  0
  6 44  1  0
  7 45  1  0
  8 46  1  0
 13 47  1  0
 14 48  1  0
 15 49  1  0
 16 50  1  0
 16 51  1  0
 17 52  1  0
 17 53  1  0
 18 54  1  0
 19 55  1  0
 19 56  1  0
 20 57  1  0
 20 58  1  0
 23 59  1  0
 24 60  1  0
 29 61  1  0
 30 62  1  0
 30 63  1  0
 31 64  1  0
 31 65  1  0
 32 66  1  0
 33 67  1  0
 34 68  1  0
 34 69  1  0
 35 70  1  0
 35 71  1  0
M  END
> <Name>
Molecule

> <AbsoluteEnergy>
55.9033

> <Clean Energy>
225.967

> <ConfNumber>
34

> <MOL_NUMBER>
5

> <RelativeEnergy>
7.60119

> <POSE_NUMBER>
21

> <LibDockScore>
127.0077

> <HotSpots>
-5.33,-24.12,49.78,A,36,5
2.47,-25.32,48.78,P,32,18
-6.53,-33.12,56.38,P,68,29

$$$$
Molecule
  SciTegic05072616053D

 71 75  0  0  0  0            999 V2000
   -6.3126  -22.3502   49.6267 C   0  0  0  1  0  0
   -5.0305  -22.9896   50.2129 C   0  0  0  1  0  0
   -4.1405  -21.8723   50.7855 C   0  0  0  1  0  0
   -4.2591  -23.9073   49.2791 C   0  0  0  1  0  0
   -4.3267  -23.5999   47.8958 C   0  0  0  1  0  0
   -3.6793  -24.3740   46.9303 C   0  0  0  1  0  0
   -2.9325  -25.4786   47.3242 C   0  0  0  1  0  0
   -2.8300  -25.7981   48.6814 C   0  0  0  1  0  0
   -3.4747  -25.0454   49.7029 C   0  0  0  1  0  0
   -3.2395  -25.5208   51.1622 C   0  0  0  1  0  0
   -1.8824  -25.0332   51.6874 C   0  0  0  1  0  0
   -1.8094  -24.5007   52.7727 O   0  0  0  1  0  0
   -0.7277  -25.2014   50.9493 N   0  0  0  1  0  0
    0.5786  -24.7009   51.4509 C   0  0  0  1  0  0
    1.1418  -25.5707   52.4893 N   0  0  0  1  0  0
    2.5700  -25.3130   52.4244 C   0  0  0  1  0  0
    2.8505  -25.0457   50.9544 C   0  0  0  1  0  0
    1.5746  -24.6379   50.3771 N   0  0  0  1  0  0
   -3.2355  -27.0826   51.3119 C   0  0  0  1  0  0
   -4.5823  -27.7444   50.9517 C   0  0  0  1  0  0
   -5.7055  -27.1726   51.7537 N   0  0  0  1  0  0
   -6.6619  -27.9667   52.3816 C   0  0  0  1  0  0
   -7.7374  -27.3696   53.0788 C   0  0  0  1  0  0
   -8.7030  -28.1597   53.7234 C   0  0  0  1  0  0
   -8.6135  -29.5609   53.6795 C   0  0  0  1  0  0
   -9.6471  -30.4083   54.3808 C   0  0  0  1  0  0
   -9.3767  -30.5396   55.8700 C   0  0  0  1  0  0
   -8.8019  -31.5225   56.2802 O   0  0  0  1  0  0
   -9.7765  -29.5646   56.6843 O   0  0  0  1  0  0
  -10.2745  -31.5860   53.6496 C   0  0  0  1  0  0
  -11.0951  -30.3490   53.9205 C   0  0  0  1  0  0
   -7.5535  -30.1676   52.9848 C   0  0  0  1  0  0
   -6.5839  -29.3783   52.3437 C   0  0  0  1  0  0
   -5.7399  -25.6829   51.8443 C   0  0  0  1  0  0
   -4.3433  -25.1286   52.1895 C   0  0  0  1  0  0
   -6.0491  -21.6539   48.8305 H   0  0
   -6.8551  -21.8216   50.4105 H   0  0
   -6.9493  -23.1352   49.2186 H   0  0
   -5.3574  -23.6684   51.0007 H   0  0
   -4.6732  -21.3415   51.5746 H   0  0
   -3.8671  -21.1738   49.9946 H   0  0
   -3.2347  -22.3141   51.2007 H   0  0
   -4.9026  -22.7314   47.5761 H   0  0
   -3.7590  -24.1138   45.8748 H   0  0
   -2.4290  -26.0930   46.5779 H   0  0
   -2.2302  -26.6613   48.9698 H   0  0
   -0.7740  -25.6989   50.0031 H   0  0
    0.3726  -23.7100   51.8556 H   0  0
    0.7601  -25.2939   53.4498 H   0  0
    3.1260  -26.1898   52.7562 H   0  0
    2.8200  -24.4332   53.0174 H   0  0
    3.5785  -24.2405   50.8554 H   0  0
    3.2038  -25.9565   50.4709 H   0  0
    1.3022  -25.3094   49.5899 H   0  0
   -2.4578  -27.4965   50.6701 H   0  0
   -2.9824  -27.3387   52.3407 H   0  0
   -4.7854  -27.5904   49.8919 H   0  0
   -4.5182  -28.8160   51.1404 H   0  0
   -7.8180  -26.2832   53.1164 H   0  0
   -9.5244  -27.6842   54.2594 H   0  0
  -10.8084  -29.4705   56.5144 H   0  0
  -10.5267  -32.3945   54.3358 H   0  0
   -9.9464  -31.6320   52.6112 H   0  0
  -11.2059  -29.7359   53.0261 H   0  0
  -11.7849  -30.4975   54.7513 H   0  0
   -7.4831  -31.2545   52.9431 H   0  0
   -5.7630  -29.8590   51.8116 H   0  0
   -6.4471  -25.3840   52.6180 H   0  0
   -6.0648  -25.2710   50.8889 H   0  0
   -4.4016  -24.0417   52.2479 H   0  0
   -4.0539  -25.4944   53.1746 H   0  0
  1  2  1  0
  2  3  1  0
  2  4  1  0
  4  5  2  0
  4  9  1  0
  5  6  1  0
  6  7  2  0
  7  8  1  0
  8  9  2  0
  9 10  1  0
 10 11  1  0
 10 19  1  0
 10 35  1  0
 11 12  2  0
 11 13  1  0
 13 14  1  0
 14 15  1  0
 14 18  1  0
 15 16  1  0
 16 17  1  0
 17 18  1  0
 19 20  1  0
 20 21  1  0
 21 22  1  0
 21 34  1  0
 22 23  2  0
 22 33  1  0
 23 24  1  0
 24 25  2  0
 25 26  1  0
 25 32  1  0
 26 27  1  0
 26 30  1  0
 26 31  1  0
 27 28  2  0
 27 29  1  0
 30 31  1  0
 32 33  2  0
 34 35  1  0
  1 36  1  0
  1 37  1  0
  1 38  1  0
  2 39  1  0
  3 40  1  0
  3 41  1  0
  3 42  1  0
  5 43  1  0
  6 44  1  0
  7 45  1  0
  8 46  1  0
 13 47  1  0
 14 48  1  0
 15 49  1  0
 16 50  1  0
 16 51  1  0
 17 52  1  0
 17 53  1  0
 18 54  1  0
 19 55  1  0
 19 56  1  0
 20 57  1  0
 20 58  1  0
 23 59  1  0
 24 60  1  0
 29 61  1  0
 30 62  1  0
 30 63  1  0
 31 64  1  0
 31 65  1  0
 32 66  1  0
 33 67  1  0
 34 68  1  0
 34 69  1  0
 35 70  1  0
 35 71  1  0
M  END
> <Name>
Molecule

> <AbsoluteEnergy>
59.3048

> <Clean Energy>
225.967

> <ConfNumber>
55

> <MOL_NUMBER>
5

> <RelativeEnergy>
11.0027

> <POSE_NUMBER>
22

> <LibDockScore>
126.8103

> <HotSpots>
-4.93,-23.52,47.59,A,26,5
2.27,-24.92,52.19,A,58,16
-10.93,-30.92,53.98,A,68,31

$$$$
Molecule
  SciTegic05072616053D

 71 75  0  0  0  0            999 V2000
    1.3589  -25.6323   47.1497 C   0  0  0  1  0  0
    0.1733  -24.7022   47.4672 C   0  0  0  1  0  0
    0.3243  -23.3329   46.7762 C   0  0  0  1  0  0
   -0.0514  -24.5579   48.9566 C   0  0  0  1  0  0
    1.0316  -24.0471   49.7075 C   0  0  0  1  0  0
    0.9300  -23.8501   51.0892 C   0  0  0  1  0  0
   -0.2636  -24.1564   51.7443 C   0  0  0  1  0  0
   -1.3497  -24.6652   51.0197 C   0  0  0  1  0  0
   -1.2743  -24.8979   49.6238 C   0  0  0  1  0  0
   -2.4859  -25.4845   48.8850 C   0  0  0  1  0  0
   -2.6964  -24.7842   47.5347 C   0  0  0  1  0  0
   -2.4800  -25.3804   46.5032 O   0  0  0  1  0  0
   -3.1298  -23.4746   47.4799 N   0  0  0  1  0  0
   -3.5701  -22.8653   46.1977 C   0  0  0  1  0  0
   -5.0119  -22.5976   46.1682 N   0  0  0  1  0  0
   -5.1479  -21.5167   45.2068 C   0  0  0  1  0  0
   -3.8877  -20.6839   45.3783 C   0  0  0  1  0  0
   -2.9006  -21.5815   45.9666 N   0  0  0  1  0  0
   -3.8550  -25.3436   49.6205 C   0  0  0  1  0  0
   -4.1215  -26.2224   50.8711 C   0  0  0  1  0  0
   -3.3736  -27.5221   50.9776 N   0  0  0  1  0  0
   -3.7002  -28.4520   51.9817 C   0  0  0  1  0  0
   -4.8070  -28.2489   52.8446 C   0  0  0  1  0  0
   -5.1500  -29.1940   53.8264 C   0  0  0  1  0  0
   -4.3923  -30.3658   53.9780 C   0  0  0  1  0  0
   -4.7784  -31.3915   55.0178 C   0  0  0  1  0  0
   -3.9053  -31.3404   56.2618 C   0  0  0  1  0  0
   -2.8514  -31.9351   56.2703 O   0  0  0  1  0  0
   -4.3256  -30.6420   57.3145 O   0  0  0  1  0  0
   -5.3211  -32.7410   54.5706 C   0  0  0  1  0  0
   -6.2478  -31.7340   55.2045 C   0  0  0  1  0  0
   -3.2748  -30.5746   53.1530 C   0  0  0  1  0  0
   -2.9317  -29.6289   52.1725 C   0  0  0  1  0  0
   -2.2555  -27.7965   50.0198 C   0  0  0  1  0  0
   -2.3426  -27.0173   48.7024 C   0  0  0  1  0  0
    2.2769  -25.1519   47.4883 H   0  0
    1.4105  -25.7722   46.0699 H   0  0
    1.2330  -26.5940   47.6471 H   0  0
   -0.7200  -25.1739   47.0577 H   0  0
    0.3848  -23.4925   45.6996 H   0  0
    1.2512  -22.8723   47.1180 H   0  0
   -0.5238  -22.6905   47.0134 H   0  0
    1.9646  -23.8017   49.2002 H   0  0
    1.7786  -23.4595   51.6508 H   0  0
   -0.3510  -23.9999   52.8195 H   0  0
   -2.2787  -24.8883   51.5445 H   0  0
   -3.1491  -22.8887   48.3750 H   0  0
   -3.3117  -23.5931   45.4286 H   0  0
   -5.5412  -23.4630   45.8278 H   0  0
   -6.0265  -20.9148   45.4390 H   0  0
   -5.1943  -21.9183   44.1945 H   0  0
   -3.5395  -20.3322   44.4071 H   0  0
   -4.0812  -19.8497   46.0526 H   0  0
   -2.5552  -21.1802   46.8964 H   0  0
   -3.9773  -24.2999   49.9100 H   0  0
   -4.6489  -25.5358   48.8988 H   0  0
   -3.9007  -25.6302   51.7591 H   0  0
   -5.1885  -26.4406   50.9164 H   0  0
   -5.4033  -27.3420   52.7444 H   0  0
   -6.0089  -29.0162   54.4736 H   0  0
   -5.2659  -31.0439   57.5528 H   0  0
   -5.0488  -33.5327   55.2686 H   0  0
   -5.4493  -32.7812   53.4889 H   0  0
   -6.8720  -31.2378   54.4613 H   0  0
   -6.4703  -31.9881   56.2409 H   0  0
   -2.6713  -31.4742   53.2741 H   0  0
   -2.0572  -29.8030   51.5456 H   0  0
   -2.2403  -28.8630   49.7950 H   0  0
   -1.3107  -27.5556   50.5071 H   0  0
   -1.4471  -27.2205   48.1152 H   0  0
   -3.1963  -27.3852   48.1332 H   0  0
  1  2  1  0
  2  3  1  0
  2  4  1  0
  4  5  2  0
  4  9  1  0
  5  6  1  0
  6  7  2  0
  7  8  1  0
  8  9  2  0
  9 10  1  0
 10 11  1  0
 10 19  1  0
 10 35  1  0
 11 12  2  0
 11 13  1  0
 13 14  1  0
 14 15  1  0
 14 18  1  0
 15 16  1  0
 16 17  1  0
 17 18  1  0
 19 20  1  0
 20 21  1  0
 21 22  1  0
 21 34  1  0
 22 23  2  0
 22 33  1  0
 23 24  1  0
 24 25  2  0
 25 26  1  0
 25 32  1  0
 26 27  1  0
 26 30  1  0
 26 31  1  0
 27 28  2  0
 27 29  1  0
 30 31  1  0
 32 33  2  0
 34 35  1  0
  1 36  1  0
  1 37  1  0
  1 38  1  0
  2 39  1  0
  3 40  1  0
  3 41  1  0
  3 42  1  0
  5 43  1  0
  6 44  1  0
  7 45  1  0
  8 46  1  0
 13 47  1  0
 14 48  1  0
 15 49  1  0
 16 50  1  0
 16 51  1  0
 17 52  1  0
 17 53  1  0
 18 54  1  0
 19 55  1  0
 19 56  1  0
 20 57  1  0
 20 58  1  0
 23 59  1  0
 24 60  1  0
 29 61  1  0
 30 62  1  0
 30 63  1  0
 31 64  1  0
 31 65  1  0
 32 66  1  0
 33 67  1  0
 34 68  1  0
 34 69  1  0
 35 70  1  0
 35 71  1  0
M  END
> <Name>
Molecule

> <AbsoluteEnergy>
51.7606

> <Clean Energy>
225.967

> <ConfNumber>
15

> <MOL_NUMBER>
5

> <RelativeEnergy>
3.45843

> <POSE_NUMBER>
23

> <LibDockScore>
126.2811

> <HotSpots>
0.27,-24.92,46.38,A,19,3
-4.93,-21.52,45.19,A,11,16
-4.13,-30.52,57.38,P,71,29

$$$$
Molecule
  SciTegic05072616053D

 71 75  0  0  0  0            999 V2000
   -2.4635  -24.1448   46.8317 C   0  0  0  1  0  0
   -3.8496  -24.5864   47.3417 C   0  0  0  1  0  0
   -4.8291  -24.5970   46.1438 C   0  0  0  1  0  0
   -4.2970  -23.7888   48.5589 C   0  0  0  1  0  0
   -5.4762  -23.0124   48.4153 C   0  0  0  1  0  0
   -5.9811  -22.2288   49.4549 C   0  0  0  1  0  0
   -5.3095  -22.1876   50.6728 C   0  0  0  1  0  0
   -4.1406  -22.9334   50.8459 C   0  0  0  1  0  0
   -3.6008  -23.7649   49.8258 C   0  0  0  1  0  0
   -2.2967  -24.5301   50.1736 C   0  0  0  1  0  0
   -1.0869  -23.7030   49.7073 C   0  0  0  1  0  0
   -1.2416  -22.7087   49.0313 O   0  0  0  1  0  0
    0.1985  -24.0761   50.0437 N   0  0  0  1  0  0
    1.3630  -23.2372   49.6702 C   0  0  0  1  0  0
    2.4643  -23.4466   50.6172 N   0  0  0  1  0  0
    3.6619  -23.6629   49.8259 C   0  0  0  1  0  0
    3.1419  -24.2483   48.5289 C   0  0  0  1  0  0
    1.8442  -23.6189   48.3350 N   0  0  0  1  0  0
   -2.2120  -25.9891   49.6285 C   0  0  0  1  0  0
   -3.3696  -26.8843   50.1151 C   0  0  0  1  0  0
   -3.4087  -26.9544   51.6086 N   0  0  0  1  0  0
   -3.5866  -28.1529   52.2982 C   0  0  0  1  0  0
   -3.0093  -28.3325   53.5768 C   0  0  0  1  0  0
   -3.1843  -29.5329   54.2843 C   0  0  0  1  0  0
   -3.9429  -30.5770   53.7284 C   0  0  0  1  0  0
   -4.1392  -31.8648   54.4919 C   0  0  0  1  0  0
   -4.3729  -33.0586   53.5816 C   0  0  0  1  0  0
   -5.3980  -33.1194   52.9420 O   0  0  0  1  0  0
   -3.4416  -34.0082   53.5109 O   0  0  0  1  0  0
   -4.8491  -31.8344   55.8370 C   0  0  0  1  0  0
   -3.3634  -32.0908   55.7805 C   0  0  0  1  0  0
   -4.5207  -30.4129   52.4578 C   0  0  0  1  0  0
   -4.3405  -29.2152   51.7471 C   0  0  0  1  0  0
   -3.2596  -25.6528   52.3295 C   0  0  0  1  0  0
   -2.1426  -24.7794   51.7154 C   0  0  0  1  0  0
   -2.5241  -23.1433   46.4058 H   0  0
   -2.1034  -24.8438   46.0768 H   0  0
   -1.7644  -24.1336   47.6679 H   0  0
   -3.8145  -25.6047   47.7288 H   0  0
   -4.4830  -25.2986   45.3848 H   0  0
   -4.9037  -23.5982   45.7138 H   0  0
   -5.8137  -24.9081   46.4928 H   0  0
   -6.0051  -23.0283   47.4623 H   0  0
   -6.8957  -21.6530   49.3132 H   0  0
   -5.6938  -21.5758   51.4889 H   0  0
   -3.6209  -22.8756   51.8023 H   0  0
    0.3576  -24.9863   50.5833 H   0  0
    1.0476  -22.1939   49.6824 H   0  0
    2.5864  -22.5780   51.2300 H   0  0
    4.3191  -24.3772   50.3219 H   0  0
    4.1637  -22.7145   49.6339 H   0  0
    3.8104  -23.9898   47.7077 H   0  0
    3.0242  -25.3276   48.6256 H   0  0
    1.1654  -24.3155   47.8890 H   0  0
   -2.2208  -25.9614   48.5389 H   0  0
   -1.2670  -26.4318   49.9433 H   0  0
   -4.3140  -26.4801   49.7507 H   0  0
   -3.2415  -27.8892   49.7129 H   0  0
   -2.4208  -27.5286   54.0189 H   0  0
   -2.7303  -29.6551   55.2677 H   0  0
   -3.3060  -34.3330   54.5002 H   0  0
   -5.4094  -32.7524   56.0144 H   0  0
   -5.0699  -30.8136   56.1491 H   0  0
   -2.7915  -31.2071   56.0634 H   0  0
   -3.1311  -33.1456   55.9271 H   0  0
   -5.1113  -31.2188   52.0221 H   0  0
   -4.7869  -29.1029   50.7591 H   0  0
   -3.0252  -25.8480   53.3759 H   0  0
   -4.2034  -25.1094   52.2840 H   0  0
   -2.1284  -23.8177   52.2284 H   0  0
   -1.1815  -25.2595   51.8996 H   0  0
  1  2  1  0
  2  3  1  0
  2  4  1  0
  4  5  2  0
  4  9  1  0
  5  6  1  0
  6  7  2  0
  7  8  1  0
  8  9  2  0
  9 10  1  0
 10 11  1  0
 10 19  1  0
 10 35  1  0
 11 12  2  0
 11 13  1  0
 13 14  1  0
 14 15  1  0
 14 18  1  0
 15 16  1  0
 16 17  1  0
 17 18  1  0
 19 20  1  0
 20 21  1  0
 21 22  1  0
 21 34  1  0
 22 23  2  0
 22 33  1  0
 23 24  1  0
 24 25  2  0
 25 26  1  0
 25 32  1  0
 26 27  1  0
 26 30  1  0
 26 31  1  0
 27 28  2  0
 27 29  1  0
 30 31  1  0
 32 33  2  0
 34 35  1  0
  1 36  1  0
  1 37  1  0
  1 38  1  0
  2 39  1  0
  3 40  1  0
  3 41  1  0
  3 42  1  0
  5 43  1  0
  6 44  1  0
  7 45  1  0
  8 46  1  0
 13 47  1  0
 14 48  1  0
 15 49  1  0
 16 50  1  0
 16 51  1  0
 17 52  1  0
 17 53  1  0
 18 54  1  0
 19 55  1  0
 19 56  1  0
 20 57  1  0
 20 58  1  0
 23 59  1  0
 24 60  1  0
 29 61  1  0
 30 62  1  0
 30 63  1  0
 31 64  1  0
 31 65  1  0
 32 66  1  0
 33 67  1  0
 34 68  1  0
 34 69  1  0
 35 70  1  0
 35 71  1  0
M  END
> <Name>
Molecule

> <AbsoluteEnergy>
58.9509

> <Clean Energy>
225.967

> <ConfNumber>
47

> <MOL_NUMBER>
5

> <RelativeEnergy>
10.6487

> <POSE_NUMBER>
24

> <LibDockScore>
126.0572

> <HotSpots>
-4.93,-23.52,47.59,A,26,5
4.07,-23.72,49.78,A,37,16
-4.13,-31.12,56.59,A,79,30

$$$$
Molecule
  SciTegic05072616053D

 71 75  0  0  0  0            999 V2000
   -6.0848  -23.1273   50.9876 C   0  0  0  1  0  0
   -4.6298  -23.0345   50.4670 C   0  0  0  1  0  0
   -4.0975  -21.6196   50.7700 C   0  0  0  1  0  0
   -4.4190  -23.4378   49.0119 C   0  0  0  1  0  0
   -5.3188  -22.8788   48.0667 C   0  0  0  1  0  0
   -5.2397  -23.1645   46.7030 C   0  0  0  1  0  0
   -4.2424  -24.0133   46.2369 C   0  0  0  1  0  0
   -3.3298  -24.5707   47.1363 C   0  0  0  1  0  0
   -3.3774  -24.3258   48.5385 C   0  0  0  1  0  0
   -2.2821  -25.0076   49.4119 C   0  0  0  1  0  0
   -0.9139  -24.4572   48.9605 C   0  0  0  1  0  0
   -0.8569  -23.5104   48.2047 O   0  0  0  1  0  0
    0.2753  -25.0024   49.3931 N   0  0  0  1  0  0
    1.5777  -24.4064   49.0077 C   0  0  0  1  0  0
    1.6914  -23.0489   49.5384 N   0  0  0  1  0  0
    3.1042  -22.8530   49.7961 C   0  0  0  1  0  0
    3.5927  -24.2259   50.2178 C   0  0  0  1  0  0
    2.6942  -25.1752   49.5716 N   0  0  0  1  0  0
   -2.5424  -24.7950   50.9461 C   0  0  0  1  0  0
   -1.9186  -25.7641   51.9721 C   0  0  0  1  0  0
   -2.0486  -27.1820   51.5628 N   0  0  0  1  0  0
   -2.5842  -28.1663   52.3906 C   0  0  0  1  0  0
   -3.1954  -29.3162   51.8398 C   0  0  0  1  0  0
   -3.7379  -30.3100   52.6708 C   0  0  0  1  0  0
   -3.6749  -30.1759   54.0685 C   0  0  0  1  0  0
   -4.2566  -31.2460   54.9609 C   0  0  0  1  0  0
   -5.6752  -31.6281   54.5737 C   0  0  0  1  0  0
   -5.8780  -32.1102   53.4834 O   0  0  0  1  0  0
   -6.6597  -31.4217   55.4465 O   0  0  0  1  0  0
   -3.8873  -31.2689   56.4363 C   0  0  0  1  0  0
   -3.3444  -32.3310   55.5132 C   0  0  0  1  0  0
   -3.0699  -29.0376   54.6289 C   0  0  0  1  0  0
   -2.5318  -28.0409   53.7981 C   0  0  0  1  0  0
   -1.5593  -27.4650   50.1947 C   0  0  0  1  0  0
   -2.2758  -26.5665   49.1732 C   0  0  0  1  0  0
   -6.7102  -22.3905   50.4835 H   0  0
   -6.1088  -22.9552   52.0637 H   0  0
   -6.4730  -24.1243   50.7791 H   0  0
   -4.0508  -23.7872   51.0020 H   0  0
   -4.1088  -21.4379   51.8447 H   0  0
   -4.7102  -20.8732   50.2645 H   0  0
   -3.0724  -21.5415   50.4078 H   0  0
   -6.0984  -22.2031   48.4183 H   0  0
   -5.9552  -22.7250   46.0080 H   0  0
   -4.1725  -24.2432   45.1737 H   0  0
   -2.5468  -25.2218   46.7475 H   0  0
    0.2589  -25.8708   50.0179 H   0  0
    1.6208  -24.4097   47.9186 H   0  0
    1.3507  -22.3418   48.8112 H   0  0
    3.2453  -22.1400   50.6084 H   0  0
    3.6138  -22.5378   48.8855 H   0  0
    4.6133  -24.3812   49.8681 H   0  0
    3.5270  -24.3287   51.3010 H   0  0
    2.3249  -25.8726   50.2942 H   0  0
   -2.2205  -23.7860   51.2037 H   0  0
   -3.6206  -24.7907   51.1063 H   0  0
   -0.8618  -25.5250   52.0913 H   0  0
   -2.4083  -25.6274   52.9363 H   0  0
   -3.2461  -29.4328   50.7572 H   0  0
   -4.2095  -31.1884   52.2302 H   0  0
   -6.6138  -30.3977   55.6741 H   0  0
   -4.7063  -31.6474   57.0478 H   0  0
   -3.1345  -30.5165   56.6713 H   0  0
   -2.3015  -32.1460   55.2559 H   0  0
   -3.8742  -33.2762   55.6312 H   0  0
   -3.0181  -28.9279   55.7121 H   0  0
   -2.0685  -27.1606   54.2436 H   0  0
   -1.7495  -28.5103   49.9512 H   0  0
   -0.4864  -27.2783   50.1492 H   0  0
   -1.8396  -26.7586   48.1929 H   0  0
   -3.3101  -26.9021   49.0977 H   0  0
  1  2  1  0
  2  3  1  0
  2  4  1  0
  4  5  2  0
  4  9  1  0
  5  6  1  0
  6  7  2  0
  7  8  1  0
  8  9  2  0
  9 10  1  0
 10 11  1  0
 10 19  1  0
 10 35  1  0
 11 12  2  0
 11 13  1  0
 13 14  1  0
 14 15  1  0
 14 18  1  0
 15 16  1  0
 16 17  1  0
 17 18  1  0
 19 20  1  0
 20 21  1  0
 21 22  1  0
 21 34  1  0
 22 23  2  0
 22 33  1  0
 23 24  1  0
 24 25  2  0
 25 26  1  0
 25 32  1  0
 26 27  1  0
 26 30  1  0
 26 31  1  0
 27 28  2  0
 27 29  1  0
 30 31  1  0
 32 33  2  0
 34 35  1  0
  1 36  1  0
  1 37  1  0
  1 38  1  0
  2 39  1  0
  3 40  1  0
  3 41  1  0
  3 42  1  0
  5 43  1  0
  6 44  1  0
  7 45  1  0
  8 46  1  0
 13 47  1  0
 14 48  1  0
 15 49  1  0
 16 50  1  0
 16 51  1  0
 17 52  1  0
 17 53  1  0
 18 54  1  0
 19 55  1  0
 19 56  1  0
 20 57  1  0
 20 58  1  0
 23 59  1  0
 24 60  1  0
 29 61  1  0
 30 62  1  0
 30 63  1  0
 31 64  1  0
 31 65  1  0
 32 66  1  0
 33 67  1  0
 34 68  1  0
 34 69  1  0
 35 70  1  0
 35 71  1  0
M  END
> <Name>
Molecule

> <AbsoluteEnergy>
62.548

> <Clean Energy>
225.967

> <ConfNumber>
77

> <MOL_NUMBER>
5

> <RelativeEnergy>
14.2459

> <POSE_NUMBER>
25

> <LibDockScore>
125.9554

> <HotSpots>
-2.53,-22.32,48.19,A,29,3
-4.53,-24.52,46.19,A,17,5
-4.13,-31.12,56.59,A,79,31

$$$$
Molecule
  SciTegic05072616053D

 71 75  0  0  0  0            999 V2000
   -6.8245  -23.5039   49.9441 C   0  0  0  1  0  0
   -5.2766  -23.5220   49.9436 C   0  0  0  1  0  0
   -4.7674  -22.1038   50.2559 C   0  0  0  1  0  0
   -4.6194  -24.1003   48.7014 C   0  0  0  1  0  0
   -5.3248  -23.9372   47.4814 C   0  0  0  1  0  0
   -4.8409  -24.4378   46.2708 C   0  0  0  1  0  0
   -3.6247  -25.1110   46.2439 C   0  0  0  1  0  0
   -2.8952  -25.2725   47.4256 C   0  0  0  1  0  0
   -3.3471  -24.7866   48.6847 C   0  0  0  1  0  0
   -2.4055  -25.0289   49.8954 C   0  0  0  1  0  0
   -1.2162  -24.0593   49.8698 C   0  0  0  1  0  0
   -1.1826  -23.1225   50.6366 O   0  0  0  1  0  0
   -0.1654  -24.2397   48.9925 N   0  0  0  1  0  0
    1.1583  -23.6143   49.2480 C   0  0  0  1  0  0
    1.7717  -24.1055   50.4867 N   0  0  0  1  0  0
    3.1940  -23.8942   50.2802 C   0  0  0  1  0  0
    3.4086  -24.1195   48.7921 C   0  0  0  1  0  0
    2.1061  -23.9103   48.1696 N   0  0  0  1  0  0
   -1.7961  -26.4743   49.9266 C   0  0  0  1  0  0
   -2.8506  -27.5896   50.0876 C   0  0  0  1  0  0
   -3.6892  -27.3789   51.3059 N   0  0  0  1  0  0
   -3.9762  -28.4008   52.2074 C   0  0  0  1  0  0
   -4.9611  -28.2152   53.2048 C   0  0  0  1  0  0
   -5.2531  -29.2350   54.1251 C   0  0  0  1  0  0
   -4.5689  -30.4601   54.0628 C   0  0  0  1  0  0
   -4.8775  -31.5516   55.0587 C   0  0  0  1  0  0
   -3.9824  -31.4889   56.2847 C   0  0  0  1  0  0
   -2.9946  -32.1867   56.3294 O   0  0  0  1  0  0
   -4.3080  -30.6621   57.2765 O   0  0  0  1  0  0
   -5.3338  -32.9153   54.5612 C   0  0  0  1  0  0
   -6.3178  -32.0007   55.2483 C   0  0  0  1  0  0
   -3.5922  -30.6605   53.0727 C   0  0  0  1  0  0
   -3.2954  -29.6392   52.1546 C   0  0  0  1  0  0
   -4.2045  -25.9915   51.5018 C   0  0  0  1  0  0
   -3.0759  -24.9607   51.3002 C   0  0  0  1  0  0
   -7.1875  -22.8135   49.1828 H   0  0
   -7.1915  -23.1953   50.9230 H   0  0
   -7.1940  -24.5054   49.7235 H   0  0
   -4.9766  -24.2230   50.7225 H   0  0
   -5.1250  -21.7888   51.2362 H   0  0
   -5.1211  -21.4070   49.4960 H   0  0
   -3.6774  -22.1075   50.2575 H   0  0
   -6.2754  -23.4038   47.4892 H   0  0
   -5.4129  -24.3016   45.3530 H   0  0
   -3.2415  -25.5113   45.3053 H   0  0
   -1.9387  -25.7932   47.3806 H   0  0
   -0.3061  -24.8380   48.1166 H   0  0
    0.9638  -22.5441   49.3186 H   0  0
    1.4303  -23.5296   51.3214 H   0  0
    3.7695  -24.6208   50.8537 H   0  0
    3.4639  -22.8719   50.5450 H   0  0
    4.1264  -23.3956   48.4064 H   0  0
    3.7463  -25.1406   48.6148 H   0  0
    1.8039  -24.7983   47.6548 H   0  0
   -1.2433  -26.6441   49.0026 H   0  0
   -1.0858  -26.5410   50.7507 H   0  0
   -3.4948  -27.6036   49.2085 H   0  0
   -2.3463  -28.5530   50.1635 H   0  0
   -5.5001  -27.2694   53.2600 H   0  0
   -6.0130  -29.0753   54.8901 H   0  0
   -5.2811  -30.9393   57.5571 H   0  0
   -4.9985  -33.7148   55.2219 H   0  0
   -5.4749  -32.9193   53.4804 H   0  0
   -6.9848  -31.5180   54.5341 H   0  0
   -6.5073  -32.3122   56.2755 H   0  0
   -3.0629  -31.6117   53.0167 H   0  0
   -2.5324  -29.8031   51.3936 H   0  0
   -4.6052  -25.8938   52.5108 H   0  0
   -5.0014  -25.7981   50.7837 H   0  0
   -3.4831  -23.9607   51.4493 H   0  0
   -2.3136  -25.1209   52.0626 H   0  0
  1  2  1  0
  2  3  1  0
  2  4  1  0
  4  5  2  0
  4  9  1  0
  5  6  1  0
  6  7  2  0
  7  8  1  0
  8  9  2  0
  9 10  1  0
 10 11  1  0
 10 19  1  0
 10 35  1  0
 11 12  2  0
 11 13  1  0
 13 14  1  0
 14 15  1  0
 14 18  1  0
 15 16  1  0
 16 17  1  0
 17 18  1  0
 19 20  1  0
 20 21  1  0
 21 22  1  0
 21 34  1  0
 22 23  2  0
 22 33  1  0
 23 24  1  0
 24 25  2  0
 25 26  1  0
 25 32  1  0
 26 27  1  0
 26 30  1  0
 26 31  1  0
 27 28  2  0
 27 29  1  0
 30 31  1  0
 32 33  2  0
 34 35  1  0
  1 36  1  0
  1 37  1  0
  1 38  1  0
  2 39  1  0
  3 40  1  0
  3 41  1  0
  3 42  1  0
  5 43  1  0
  6 44  1  0
  7 45  1  0
  8 46  1  0
 13 47  1  0
 14 48  1  0
 15 49  1  0
 16 50  1  0
 16 51  1  0
 17 52  1  0
 17 53  1  0
 18 54  1  0
 19 55  1  0
 19 56  1  0
 20 57  1  0
 20 58  1  0
 23 59  1  0
 24 60  1  0
 29 61  1  0
 30 62  1  0
 30 63  1  0
 31 64  1  0
 31 65  1  0
 32 66  1  0
 33 67  1  0
 34 68  1  0
 34 69  1  0
 35 70  1  0
 35 71  1  0
M  END
> <Name>
Molecule

> <AbsoluteEnergy>
59.3048

> <Clean Energy>
225.967

> <ConfNumber>
55

> <MOL_NUMBER>
5

> <RelativeEnergy>
11.0027

> <POSE_NUMBER>
26

> <LibDockScore>
125.0673

> <HotSpots>
-3.33,-21.92,50.38,A,47,3
-4.93,-23.52,47.59,A,26,5
-3.33,-32.52,56.19,P,67,28

$$$$
Molecule
  SciTegic05072616053D

 71 75  0  0  0  0            999 V2000
    1.2088  -23.4450   53.2308 C   0  0  0  1  0  0
    0.2788  -24.2133   52.2632 C   0  0  0  1  0  0
   -0.0235  -25.6199   52.8138 C   0  0  0  1  0  0
    0.7759  -24.2797   50.8341 C   0  0  0  1  0  0
    2.0962  -23.8093   50.6232 C   0  0  0  1  0  0
    2.6737  -23.7665   49.3515 C   0  0  0  1  0  0
    1.9455  -24.2089   48.2493 C   0  0  0  1  0  0
    0.6514  -24.7058   48.4300 C   0  0  0  1  0  0
    0.0290  -24.7798   49.7056 C   0  0  0  1  0  0
   -1.3812  -25.4111   49.6782 C   0  0  0  1  0  0
   -2.1050  -24.9437   48.4064 C   0  0  0  1  0  0
   -2.4828  -25.7448   47.5814 O   0  0  0  1  0  0
   -2.3230  -23.5975   48.1928 N   0  0  0  1  0  0
   -2.8893  -23.0967   46.9111 C   0  0  0  1  0  0
   -2.8300  -21.6366   46.7950 N   0  0  0  1  0  0
   -3.8271  -21.3164   45.7831 C   0  0  0  1  0  0
   -4.8257  -22.4693   45.7986 C   0  0  0  1  0  0
   -4.3012  -23.4521   46.7405 N   0  0  0  1  0  0
   -2.3559  -25.1148   50.8610 C   0  0  0  1  0  0
   -3.6588  -25.9325   50.8196 C   0  0  0  1  0  0
   -3.3573  -27.3865   50.8244 N   0  0  0  1  0  0
   -3.8390  -28.2644   51.7931 C   0  0  0  1  0  0
   -3.4283  -29.6174   51.8106 C   0  0  0  1  0  0
   -3.8940  -30.4979   52.8011 C   0  0  0  1  0  0
   -4.7853  -30.0448   53.7890 C   0  0  0  1  0  0
   -5.2745  -30.9861   54.8635 C   0  0  0  1  0  0
   -4.2294  -31.2411   55.9395 C   0  0  0  1  0  0
   -3.3256  -32.0104   55.7093 O   0  0  0  1  0  0
   -4.3258  -30.6156   57.1119 O   0  0  0  1  0  0
   -6.7350  -30.9403   55.2854 C   0  0  0  1  0  0
   -6.2203  -32.1195   54.4966 C   0  0  0  1  0  0
   -5.2141  -28.7063   53.7729 C   0  0  0  1  0  0
   -4.7446  -27.8240   52.7858 C   0  0  0  1  0  0
   -2.4741  -27.8208   49.7130 C   0  0  0  1  0  0
   -1.1876  -26.9687   49.6703 C   0  0  0  1  0  0
    2.1407  -23.9986   53.3454 H   0  0
    0.7209  -23.3583   54.2017 H   0  0
    1.4177  -22.4514   52.8342 H   0  0
   -0.6436  -23.6346   52.2135 H   0  0
   -0.5075  -25.5264   53.7860 H   0  0
    0.9123  -26.1667   52.9297 H   0  0
   -0.6791  -26.1546   52.1265 H   0  0
    2.6792  -23.4704   51.4796 H   0  0
    3.6881  -23.3891   49.2226 H   0  0
    2.3824  -24.1678   47.2515 H   0  0
    0.0971  -25.0505   47.5571 H   0  0
   -2.0795  -22.8988   48.9657 H   0  0
   -2.2702  -23.5729   46.1508 H   0  0
   -1.8591  -21.3313   46.4647 H   0  0
   -4.3325  -20.3853   46.0395 H   0  0
   -3.3557  -21.2482   44.8027 H   0  0
   -5.7982  -22.1124   46.1378 H   0  0
   -4.8989  -22.9105   44.8046 H   0  0
   -4.3850  -24.4360   46.3285 H   0  0
   -2.6076  -24.0543   50.8536 H   0  0
   -1.8424  -25.3209   51.8001 H   0  0
   -4.2146  -25.6829   49.9158 H   0  0
   -4.2669  -25.6877   51.6905 H   0  0
   -2.7419  -29.9816   51.0461 H   0  0
   -3.5629  -31.5364   52.8036 H   0  0
   -5.2799  -30.8655   57.4720 H   0  0
   -7.3110  -30.2584   54.6599 H   0  0
   -6.8536  -31.1833   56.3413 H   0  0
   -6.0651  -32.9916   55.1318 H   0  0
   -6.5210  -32.0659   53.4503 H   0  0
   -5.9139  -28.3515   54.5295 H   0  0
   -5.0824  -26.7876   52.7851 H   0  0
   -2.2073  -28.8682   49.8536 H   0  0
   -3.0061  -27.7162   48.7674 H   0  0
   -0.6241  -27.2420   48.7782 H   0  0
   -0.5649  -27.2445   50.5213 H   0  0
  1  2  1  0
  2  3  1  0
  2  4  1  0
  4  5  2  0
  4  9  1  0
  5  6  1  0
  6  7  2  0
  7  8  1  0
  8  9  2  0
  9 10  1  0
 10 11  1  0
 10 19  1  0
 10 35  1  0
 11 12  2  0
 11 13  1  0
 13 14  1  0
 14 15  1  0
 14 18  1  0
 15 16  1  0
 16 17  1  0
 17 18  1  0
 19 20  1  0
 20 21  1  0
 21 22  1  0
 21 34  1  0
 22 23  2  0
 22 33  1  0
 23 24  1  0
 24 25  2  0
 25 26  1  0
 25 32  1  0
 26 27  1  0
 26 30  1  0
 26 31  1  0
 27 28  2  0
 27 29  1  0
 30 31  1  0
 32 33  2  0
 34 35  1  0
  1 36  1  0
  1 37  1  0
  1 38  1  0
  2 39  1  0
  3 40  1  0
  3 41  1  0
  3 42  1  0
  5 43  1  0
  6 44  1  0
  7 45  1  0
  8 46  1  0
 13 47  1  0
 14 48  1  0
 15 49  1  0
 16 50  1  0
 16 51  1  0
 17 52  1  0
 17 53  1  0
 18 54  1  0
 19 55  1  0
 19 56  1  0
 20 57  1  0
 20 58  1  0
 23 59  1  0
 24 60  1  0
 29 61  1  0
 30 62  1  0
 30 63  1  0
 31 64  1  0
 31 65  1  0
 32 66  1  0
 33 67  1  0
 34 68  1  0
 34 69  1  0
 35 70  1  0
 35 71  1  0
M  END
> <Name>
Molecule

> <AbsoluteEnergy>
57.9709

> <Clean Energy>
225.967

> <ConfNumber>
43

> <MOL_NUMBER>
5

> <RelativeEnergy>
9.66878

> <POSE_NUMBER>
27

> <LibDockScore>
124.8291

> <HotSpots>
1.87,-25.32,48.38,A,30,7
-5.13,-22.92,46.19,A,18,17
-4.13,-30.52,57.38,P,71,29

$$$$
Molecule
  SciTegic05072616053D

 71 75  0  0  0  0            999 V2000
   -5.6573  -22.6223   47.6977 C   0  0  0  1  0  0
   -4.1648  -22.8052   47.3653 C   0  0  0  1  0  0
   -3.6975  -21.8111   46.2842 C   0  0  0  1  0  0
   -3.8376  -24.2347   46.9927 C   0  0  0  1  0  0
   -4.3230  -24.6839   45.7436 C   0  0  0  1  0  0
   -4.0624  -25.9803   45.2854 C   0  0  0  1  0  0
   -3.3037  -26.8502   46.0698 C   0  0  0  1  0  0
   -2.8136  -26.4262   47.3122 C   0  0  0  1  0  0
   -3.0770  -25.1284   47.8167 C   0  0  0  1  0  0
   -2.5393  -24.7268   49.1979 C   0  0  0  1  0  0
   -1.2927  -23.8400   49.0642 C   0  0  0  1  0  0
   -1.3706  -22.6503   49.2761 O   0  0  0  1  0  0
   -0.0767  -24.3835   48.7012 N   0  0  0  1  0  0
    1.1843  -23.6114   48.8524 C   0  0  0  1  0  0
    1.4803  -23.2863   50.2518 N   0  0  0  1  0  0
    2.9236  -23.1213   50.2753 C   0  0  0  1  0  0
    3.4451  -24.1193   49.2540 C   0  0  0  1  0  0
    2.3318  -24.3714   48.3469 N   0  0  0  1  0  0
   -2.0876  -25.9073   50.1130 C   0  0  0  1  0  0
   -3.1742  -26.8205   50.7398 C   0  0  0  1  0  0
   -4.5430  -26.2324   50.9405 N   0  0  0  1  0  0
   -5.5204  -26.9344   51.6696 C   0  0  0  1  0  0
   -5.2239  -28.1668   52.3055 C   0  0  0  1  0  0
   -6.1929  -28.8508   53.0591 C   0  0  0  1  0  0
   -7.4878  -28.3258   53.1928 C   0  0  0  1  0  0
   -8.5200  -29.0510   54.0240 C   0  0  0  1  0  0
   -9.4281  -29.9500   53.1995 C   0  0  0  1  0  0
  -10.5688  -30.1309   53.5611 O   0  0  0  1  0  0
   -8.9422  -30.5191   52.0984 O   0  0  0  1  0  0
   -9.1011  -28.3700   55.2546 C   0  0  0  1  0  0
   -8.1429  -29.5231   55.4191 C   0  0  0  1  0  0
   -7.8120  -27.1207   52.5481 C   0  0  0  1  0  0
   -6.8433  -26.4379   51.7940 C   0  0  0  1  0  0
   -4.8594  -24.9041   50.3254 C   0  0  0  1  0  0
   -3.6340  -24.0271   50.0436 C   0  0  0  1  0  0
   -6.2366  -22.7746   46.7870 H   0  0
   -5.8119  -21.6020   48.0488 H   0  0
   -5.9674  -23.3337   48.4631 H   0  0
   -3.6064  -22.5805   48.2740 H   0  0
   -3.8689  -20.7978   46.6474 H   0  0
   -4.2936  -21.9703   45.3857 H   0  0
   -2.6400  -21.9569   46.0637 H   0  0
   -4.9121  -24.0071   45.1248 H   0  0
   -4.4499  -26.3088   44.3210 H   0  0
   -3.0924  -27.8593   45.7161 H   0  0
   -2.2129  -27.1140   47.9073 H   0  0
   -0.0414  -25.3767   48.3046 H   0  0
    1.0316  -22.6949   48.2825 H   0  0
    0.9997  -22.3710   50.5278 H   0  0
    3.3139  -23.3620   51.2642 H   0  0
    3.1905  -22.1078   49.9759 H   0  0
    4.2820  -23.6870   48.7056 H   0  0
    3.7366  -25.0441   49.7519 H   0  0
    2.1000  -25.4160   48.3398 H   0  0
   -1.4072  -26.5376   49.5404 H   0  0
   -1.4848  -25.4968   50.9230 H   0  0
   -3.2749  -27.7096   50.1174 H   0  0
   -2.8116  -27.1726   51.7055 H   0  0
   -4.2249  -28.5918   52.2078 H   0  0
   -5.9377  -29.7939   53.5423 H   0  0
   -8.0986  -31.0570   52.4169 H   0  0
  -10.1325  -28.6753   55.4310 H   0  0
   -8.6164  -27.4130   55.4475 H   0  0
   -7.1470  -29.1817   55.7016 H   0  0
   -8.6627  -30.4440   55.6834 H   0  0
   -8.8195  -26.7136   52.6333 H   0  0
   -7.1137  -25.5077   51.2943 H   0  0
   -5.5325  -24.3617   50.9894 H   0  0
   -5.3934  -25.0704   49.3898 H   0  0
   -3.9598  -23.1264   49.5234 H   0  0
   -3.1995  -23.7159   50.9936 H   0  0
  1  2  1  0
  2  3  1  0
  2  4  1  0
  4  5  2  0
  4  9  1  0
  5  6  1  0
  6  7  2  0
  7  8  1  0
  8  9  2  0
  9 10  1  0
 10 11  1  0
 10 19  1  0
 10 35  1  0
 11 12  2  0
 11 13  1  0
 13 14  1  0
 14 15  1  0
 14 18  1  0
 15 16  1  0
 16 17  1  0
 17 18  1  0
 19 20  1  0
 20 21  1  0
 21 22  1  0
 21 34  1  0
 22 23  2  0
 22 33  1  0
 23 24  1  0
 24 25  2  0
 25 26  1  0
 25 32  1  0
 26 27  1  0
 26 30  1  0
 26 31  1  0
 27 28  2  0
 27 29  1  0
 30 31  1  0
 32 33  2  0
 34 35  1  0
  1 36  1  0
  1 37  1  0
  1 38  1  0
  2 39  1  0
  3 40  1  0
  3 41  1  0
  3 42  1  0
  5 43  1  0
  6 44  1  0
  7 45  1  0
  8 46  1  0
 13 47  1  0
 14 48  1  0
 15 49  1  0
 16 50  1  0
 16 51  1  0
 17 52  1  0
 17 53  1  0
 18 54  1  0
 19 55  1  0
 19 56  1  0
 20 57  1  0
 20 58  1  0
 23 59  1  0
 24 60  1  0
 29 61  1  0
 30 62  1  0
 30 63  1  0
 31 64  1  0
 31 65  1  0
 32 66  1  0
 33 67  1  0
 34 68  1  0
 34 69  1  0
 35 70  1  0
 35 71  1  0
M  END
> <Name>
Molecule

> <AbsoluteEnergy>
51.7606

> <Clean Energy>
225.967

> <ConfNumber>
15

> <MOL_NUMBER>
5

> <RelativeEnergy>
3.45843

> <POSE_NUMBER>
28

> <LibDockScore>
124.0446

> <HotSpots>
-2.93,-26.32,45.98,A,15,6
4.07,-23.72,49.78,A,37,16
-6.33,-26.32,51.98,A,57,33

$$$$
Molecule
  SciTegic05072616053D

 71 75  0  0  0  0            999 V2000
   -6.1294  -25.7042   51.2369 C   0  0  0  1  0  0
   -4.8799  -24.8013   51.1393 C   0  0  0  1  0  0
   -5.0435  -23.5523   52.0292 C   0  0  0  1  0  0
   -4.5284  -24.4421   49.7103 C   0  0  0  1  0  0
   -5.5023  -23.6663   49.0401 C   0  0  0  1  0  0
   -5.3528  -23.2926   47.7020 C   0  0  0  1  0  0
   -4.2214  -23.6994   46.9963 C   0  0  0  1  0  0
   -3.2350  -24.4585   47.6373 C   0  0  0  1  0  0
   -3.3256  -24.8265   49.0122 C   0  0  0  1  0  0
   -2.1369  -25.6151   49.6149 C   0  0  0  1  0  0
   -0.7712  -25.0449   49.1548 C   0  0  0  1  0  0
    0.0457  -25.7562   48.6112 O   0  0  0  1  0  0
   -0.4541  -23.7115   49.3614 N   0  0  0  1  0  0
    0.9477  -23.2288   49.4853 C   0  0  0  1  0  0
    1.6369  -23.8182   50.6469 N   0  0  0  1  0  0
    3.0317  -23.8677   50.2491 C   0  0  0  1  0  0
    2.9836  -24.1347   48.7563 C   0  0  0  1  0  0
    1.7616  -23.4951   48.2890 N   0  0  0  1  0  0
   -2.2091  -27.1010   49.1151 C   0  0  0  1  0  0
   -3.0584  -28.0656   49.9575 C   0  0  0  1  0  0
   -2.6678  -28.0584   51.4005 N   0  0  0  1  0  0
   -3.1123  -29.0545   52.2744 C   0  0  0  1  0  0
   -4.0667  -30.0140   51.8600 C   0  0  0  1  0  0
   -4.4785  -31.0429   52.7248 C   0  0  0  1  0  0
   -3.9454  -31.1343   54.0237 C   0  0  0  1  0  0
   -4.3441  -32.2694   54.9404 C   0  0  0  1  0  0
   -5.1216  -31.8279   56.1718 C   0  0  0  1  0  0
   -4.5393  -31.2713   57.0744 O   0  0  0  1  0  0
   -6.4301  -32.0759   56.2361 O   0  0  0  1  0  0
   -3.3979  -33.4529   55.0892 C   0  0  0  1  0  0
   -4.6909  -33.6195   54.3294 C   0  0  0  1  0  0
   -3.0294  -30.1631   54.4614 C   0  0  0  1  0  0
   -2.6127  -29.1391   53.5953 C   0  0  0  1  0  0
   -1.7586  -26.9596   51.8509 C   0  0  0  1  0  0
   -2.0483  -25.5952   51.1883 C   0  0  0  1  0  0
   -7.0030  -25.1386   50.9129 H   0  0
   -6.2659  -26.0116   52.2737 H   0  0
   -6.0041  -26.5834   50.6050 H   0  0
   -4.0328  -25.3749   51.5154 H   0  0
   -5.1843  -23.8681   53.0629 H   0  0
   -5.9214  -22.9952   51.7021 H   0  0
   -4.1574  -22.9221   51.9535 H   0  0
   -6.3940  -23.3512   49.5821 H   0  0
   -6.1159  -22.6869   47.2131 H   0  0
   -4.1050  -23.4269   45.9473 H   0  0
   -2.3654  -24.7802   47.0642 H   0  0
   -1.2501  -23.0002   49.4348 H   0  0
    0.8540  -22.1505   49.6141 H   0  0
    1.5202  -23.1875   51.5034 H   0  0
    3.5410  -24.6856   50.7587 H   0  0
    3.5128  -22.9088   50.4420 H   0  0
    3.8495  -23.6857   48.2697 H   0  0
    2.9377  -25.2077   48.5704 H   0  0
    1.2355  -24.1539   47.6302 H   0  0
   -2.5956  -27.1041   48.0959 H   0  0
   -1.1951  -27.4969   49.0584 H   0  0
   -4.1078  -27.7832   49.8727 H   0  0
   -2.9462  -29.0762   49.5649 H   0  0
   -4.4882  -29.9543   50.8566 H   0  0
   -5.2141  -31.7732   52.3876 H   0  0
   -6.5172  -33.1147   56.1104 H   0  0
   -3.4577  -33.8897   56.0861 H   0  0
   -2.5440  -33.3682   54.4171 H   0  0
   -4.5267  -33.6249   53.2519 H   0  0
   -5.4407  -34.1447   54.9210 H   0  0
   -2.6401  -30.2046   55.4786 H   0  0
   -1.8938  -28.3986   53.9459 H   0  0
   -1.8475  -26.8515   52.9319 H   0  0
   -0.7289  -27.2439   51.6343 H   0  0
   -1.2686  -24.8935   51.4846 H   0  0
   -2.9867  -25.2091   51.5863 H   0  0
  1  2  1  0
  2  3  1  0
  2  4  1  0
  4  5  2  0
  4  9  1  0
  5  6  1  0
  6  7  2  0
  7  8  1  0
  8  9  2  0
  9 10  1  0
 10 11  1  0
 10 19  1  0
 10 35  1  0
 11 12  2  0
 11 13  1  0
 13 14  1  0
 14 15  1  0
 14 18  1  0
 15 16  1  0
 16 17  1  0
 17 18  1  0
 19 20  1  0
 20 21  1  0
 21 22  1  0
 21 34  1  0
 22 23  2  0
 22 33  1  0
 23 24  1  0
 24 25  2  0
 25 26  1  0
 25 32  1  0
 26 27  1  0
 26 30  1  0
 26 31  1  0
 27 28  2  0
 27 29  1  0
 30 31  1  0
 32 33  2  0
 34 35  1  0
  1 36  1  0
  1 37  1  0
  1 38  1  0
  2 39  1  0
  3 40  1  0
  3 41  1  0
  3 42  1  0
  5 43  1  0
  6 44  1  0
  7 45  1  0
  8 46  1  0
 13 47  1  0
 14 48  1  0
 15 49  1  0
 16 50  1  0
 16 51  1  0
 17 52  1  0
 17 53  1  0
 18 54  1  0
 19 55  1  0
 19 56  1  0
 20 57  1  0
 20 58  1  0
 23 59  1  0
 24 60  1  0
 29 61  1  0
 30 62  1  0
 30 63  1  0
 31 64  1  0
 31 65  1  0
 32 66  1  0
 33 67  1  0
 34 68  1  0
 34 69  1  0
 35 70  1  0
 35 71  1  0
M  END
> <Name>
Molecule

> <AbsoluteEnergy>
61.4098

> <Clean Energy>
225.967

> <ConfNumber>
73

> <MOL_NUMBER>
5

> <RelativeEnergy>
13.1076

> <POSE_NUMBER>
29

> <LibDockScore>
123.8798

> <HotSpots>
-6.13,-22.12,49.98,A,41,6
1.27,-23.52,47.59,A,27,17
-4.33,-31.92,57.78,P,73,28

$$$$
Molecule
  SciTegic05072616053D

 71 75  0  0  0  0            999 V2000
   -5.7276  -22.7730   47.7862 C   0  0  0  1  0  0
   -4.2361  -22.8670   47.4148 C   0  0  0  1  0  0
   -3.8557  -21.8434   46.3273 C   0  0  0  1  0  0
   -3.8357  -24.2736   47.0266 C   0  0  0  1  0  0
   -4.2963  -24.7329   45.7719 C   0  0  0  1  0  0
   -3.9692  -26.0089   45.2994 C   0  0  0  1  0  0
   -3.1676  -26.8477   46.0752 C   0  0  0  1  0  0
   -2.7011  -26.4133   47.3230 C   0  0  0  1  0  0
   -3.0311  -25.1365   47.8417 C   0  0  0  1  0  0
   -2.5160  -24.7235   49.2282 C   0  0  0  1  0  0
   -1.2774  -23.8239   49.1072 C   0  0  0  1  0  0
   -1.3491  -22.6519   49.4032 O   0  0  0  1  0  0
   -0.0755  -24.3355   48.6605 N   0  0  0  1  0  0
    1.1914  -23.5770   48.8299 C   0  0  0  1  0  0
    1.5015  -23.3076   50.2380 N   0  0  0  1  0  0
    2.9460  -23.1519   50.2550 C   0  0  0  1  0  0
    3.4526  -24.1129   49.1916 C   0  0  0  1  0  0
    2.3299  -24.3236   48.2854 N   0  0  0  1  0  0
   -2.0638  -25.8954   50.1541 C   0  0  0  1  0  0
   -3.1487  -26.8177   50.7703 C   0  0  0  1  0  0
   -4.5263  -26.2435   50.9505 N   0  0  0  1  0  0
   -5.5056  -26.9531   51.6696 C   0  0  0  1  0  0
   -5.2057  -28.1822   52.3103 C   0  0  0  1  0  0
   -6.1771  -28.8737   53.0539 C   0  0  0  1  0  0
   -7.4778  -28.3596   53.1726 C   0  0  0  1  0  0
   -8.5129  -29.0928   53.9932 C   0  0  0  1  0  0
   -9.4202  -29.9813   53.1567 C   0  0  0  1  0  0
  -10.5593  -30.1719   53.5182 O   0  0  0  1  0  0
   -8.9354  -30.5307   52.0451 O   0  0  0  1  0  0
   -9.0960  -28.4248   55.2300 C   0  0  0  1  0  0
   -8.1397  -29.5809   55.3838 C   0  0  0  1  0  0
   -7.8052  -27.1581   52.5230 C   0  0  0  1  0  0
   -6.8340  -26.4679   51.7788 C   0  0  0  1  0  0
   -4.8488  -24.9212   50.3258 C   0  0  0  1  0  0
   -3.6293  -24.0322   50.0564 C   0  0  0  1  0  0
   -6.3204  -22.9556   46.8899 H   0  0
   -5.9324  -21.7648   48.1464 H   0  0
   -5.9758  -23.5041   48.5556 H   0  0
   -3.6685  -22.6132   48.3101 H   0  0
   -4.0766  -20.8432   46.7000 H   0  0
   -4.4645  -22.0340   45.4435 H   0  0
   -2.7976  -21.9262   46.0791 H   0  0
   -4.9188  -24.0802   45.1599 H   0  0
   -4.3384  -26.3459   44.3308 H   0  0
   -2.9045  -27.8406   45.7104 H   0  0
   -2.0665  -27.0761   47.9113 H   0  0
   -0.0557  -25.2936   48.1846 H   0  0
    1.0393  -22.6385   48.2969 H   0  0
    1.0289  -22.4009   50.5532 H   0  0
    3.3433  -23.4326   51.2304 H   0  0
    3.2164  -22.1292   49.9923 H   0  0
    4.2873  -23.6646   48.6528 H   0  0
    3.7428  -25.0578   49.6510 H   0  0
    2.0918  -25.3658   48.2403 H   0  0
   -1.3692  -26.5207   49.5932 H   0  0
   -1.4762  -25.4752   50.9703 H   0  0
   -3.2317  -27.7104   50.1503 H   0  0
   -2.7951  -27.1620   51.7422 H   0  0
   -4.2021  -28.5987   52.2243 H   0  0
   -5.9192  -29.8141   53.5410 H   0  0
   -8.0891  -31.0709   52.3524 H   0  0
  -10.1282  -28.7307   55.4006 H   0  0
   -8.6105  -27.4706   55.4347 H   0  0
   -7.1440  -29.2440   55.6724 H   0  0
   -8.6613  -30.5040   55.6366 H   0  0
   -8.8171  -26.7596   52.5966 H   0  0
   -7.1068  -25.5406   51.2750 H   0  0
   -5.5363  -24.3834   50.9787 H   0  0
   -5.3687  -25.0970   49.3840 H   0  0
   -3.9579  -23.1372   49.5281 H   0  0
   -3.2108  -23.7124   51.0107 H   0  0
  1  2  1  0
  2  3  1  0
  2  4  1  0
  4  5  2  0
  4  9  1  0
  5  6  1  0
  6  7  2  0
  7  8  1  0
  8  9  2  0
  9 10  1  0
 10 11  1  0
 10 19  1  0
 10 35  1  0
 11 12  2  0
 11 13  1  0
 13 14  1  0
 14 15  1  0
 14 18  1  0
 15 16  1  0
 16 17  1  0
 17 18  1  0
 19 20  1  0
 20 21  1  0
 21 22  1  0
 21 34  1  0
 22 23  2  0
 22 33  1  0
 23 24  1  0
 24 25  2  0
 25 26  1  0
 25 32  1  0
 26 27  1  0
 26 30  1  0
 26 31  1  0
 27 28  2  0
 27 29  1  0
 30 31  1  0
 32 33  2  0
 34 35  1  0
  1 36  1  0
  1 37  1  0
  1 38  1  0
  2 39  1  0
  3 40  1  0
  3 41  1  0
  3 42  1  0
  5 43  1  0
  6 44  1  0
  7 45  1  0
  8 46  1  0
 13 47  1  0
 14 48  1  0
 15 49  1  0
 16 50  1  0
 16 51  1  0
 17 52  1  0
 17 53  1  0
 18 54  1  0
 19 55  1  0
 19 56  1  0
 20 57  1  0
 20 58  1  0
 23 59  1  0
 24 60  1  0
 29 61  1  0
 30 62  1  0
 30 63  1  0
 31 64  1  0
 31 65  1  0
 32 66  1  0
 33 67  1  0
 34 68  1  0
 34 69  1  0
 35 70  1  0
 35 71  1  0
M  END
> <Name>
Molecule

> <AbsoluteEnergy>
51.7606

> <Clean Energy>
225.967

> <ConfNumber>
15

> <MOL_NUMBER>
5

> <RelativeEnergy>
3.45843

> <POSE_NUMBER>
30

> <LibDockScore>
123.4822

> <HotSpots>
-2.93,-26.32,45.98,A,15,5
2.47,-25.32,48.78,P,32,18
-7.93,-28.32,52.38,A,59,32

$$$$
Molecule
  SciTegic05072616053D

 71 75  0  0  0  0            999 V2000
   -0.7057  -25.2216   46.4663 C   0  0  0  1  0  0
   -2.0211  -25.9302   46.8255 C   0  0  0  1  0  0
   -3.2878  -25.0861   46.5790 C   0  0  0  1  0  0
   -2.0784  -26.7576   48.1043 C   0  0  0  1  0  0
   -2.2723  -28.1419   47.8674 C   0  0  0  1  0  0
   -2.3219  -29.0765   48.9033 C   0  0  0  1  0  0
   -2.1773  -28.6481   50.2196 C   0  0  0  1  0  0
   -1.9998  -27.2889   50.4916 C   0  0  0  1  0  0
   -1.9640  -26.2995   49.4696 C   0  0  0  1  0  0
   -1.8069  -24.8296   49.9163 C   0  0  0  1  0  0
   -0.5020  -24.2039   49.4170 C   0  0  0  1  0  0
   -0.5337  -23.2578   48.6625 O   0  0  0  1  0  0
    0.7187  -24.7033   49.8258 N   0  0  0  1  0  0
    1.9956  -24.1131   49.3444 C   0  0  0  1  0  0
    2.1282  -22.7239   49.7769 N   0  0  0  1  0  0
    3.5560  -22.4713   49.7855 C   0  0  0  1  0  0
    4.1687  -23.7963   50.2011 C   0  0  0  1  0  0
    3.1888  -24.8176   49.8442 N   0  0  0  1  0  0
   -1.7340  -24.6185   51.4670 C   0  0  0  1  0  0
   -3.0322  -24.8905   52.2722 C   0  0  0  1  0  0
   -4.2357  -25.2325   51.4421 N   0  0  0  1  0  0
   -5.2113  -26.1373   51.8749 C   0  0  0  1  0  0
   -4.9017  -27.2257   52.7261 C   0  0  0  1  0  0
   -5.8999  -28.1183   53.1500 C   0  0  0  1  0  0
   -7.2283  -27.9497   52.7257 C   0  0  0  1  0  0
   -8.2992  -28.9136   53.1761 C   0  0  0  1  0  0
   -8.7438  -29.8552   52.0695 C   0  0  0  1  0  0
   -9.7704  -29.6215   51.4742 O   0  0  0  1  0  0
   -7.9891  -30.9145   51.7828 O   0  0  0  1  0  0
   -9.3324  -28.4560   54.1943 C   0  0  0  1  0  0
   -8.2702  -29.4482   54.5995 C   0  0  0  1  0  0
   -7.5517  -26.8800   51.8751 C   0  0  0  1  0  0
   -6.5552  -25.9841   51.4558 C   0  0  0  1  0  0
   -4.3725  -24.5682   50.1070 C   0  0  0  1  0  0
   -3.0547  -23.9784   49.5659 C   0  0  0  1  0  0
   -0.6585  -24.3070   47.0574 H   0  0
   -0.7638  -24.9450   45.4136 H   0  0
    0.1599  -25.8560   46.6571 H   0  0
   -2.0159  -26.7179   46.0721 H   0  0
   -3.2944  -24.8122   45.5240 H   0  0
   -3.1892  -24.1742   47.1679 H   0  0
   -4.1935  -25.6297   46.8479 H   0  0
   -2.3867  -28.4887   46.8404 H   0  0
   -2.4727  -30.1333   48.6830 H   0  0
   -2.2024  -29.3703   51.0356 H   0  0
   -1.8841  -26.9739   51.5287 H   0  0
    0.7462  -25.5316   50.5026 H   0  0
    1.9481  -24.1987   48.2588 H   0  0
    1.6447  -22.0738   49.0779 H   0  0
    3.7988  -21.7015   50.5180 H   0  0
    3.8963  -22.1994   48.7863 H   0  0
    5.0968  -23.9640   49.6546 H   0  0
    4.3405  -23.8057   51.2774 H   0  0
    2.9342  -25.3933   50.7094 H   0  0
   -0.9446  -25.2567   51.8642 H   0  0
   -1.4195  -23.5930   51.6610 H   0  0
   -3.2635  -24.0101   52.8718 H   0  0
   -2.8468  -25.7089   52.9679 H   0  0
   -3.8737  -27.3730   53.0572 H   0  0
   -5.6425  -28.9457   53.8113 H   0  0
   -7.9004  -31.4408   52.6871 H   0  0
  -10.2952  -28.9408   54.0328 H   0  0
   -9.1112  -27.4554   54.5657 H   0  0
   -7.4829  -28.9770   55.1880 H   0  0
   -8.6663  -30.4623   54.6535 H   0  0
   -8.5798  -26.7448   51.5393 H   0  0
   -6.8204  -25.1572   50.7970 H   0  0
   -5.1095  -23.7689   50.1852 H   0  0
   -4.7529  -25.2957   49.3900 H   0  0
   -3.1285  -23.8875   48.4822 H   0  0
   -2.9240  -22.9758   49.9732 H   0  0
  1  2  1  0
  2  3  1  0
  2  4  1  0
  4  5  2  0
  4  9  1  0
  5  6  1  0
  6  7  2  0
  7  8  1  0
  8  9  2  0
  9 10  1  0
 10 11  1  0
 10 19  1  0
 10 35  1  0
 11 12  2  0
 11 13  1  0
 13 14  1  0
 14 15  1  0
 14 18  1  0
 15 16  1  0
 16 17  1  0
 17 18  1  0
 19 20  1  0
 20 21  1  0
 21 22  1  0
 21 34  1  0
 22 23  2  0
 22 33  1  0
 23 24  1  0
 24 25  2  0
 25 26  1  0
 25 32  1  0
 26 27  1  0
 26 30  1  0
 26 31  1  0
 27 28  2  0
 27 29  1  0
 30 31  1  0
 32 33  2  0
 34 35  1  0
  1 36  1  0
  1 37  1  0
  1 38  1  0
  2 39  1  0
  3 40  1  0
  3 41  1  0
  3 42  1  0
  5 43  1  0
  6 44  1  0
  7 45  1  0
  8 46  1  0
 13 47  1  0
 14 48  1  0
 15 49  1  0
 16 50  1  0
 16 51  1  0
 17 52  1  0
 17 53  1  0
 18 54  1  0
 19 55  1  0
 19 56  1  0
 20 57  1  0
 20 58  1  0
 23 59  1  0
 24 60  1  0
 29 61  1  0
 30 62  1  0
 30 63  1  0
 31 64  1  0
 31 65  1  0
 32 66  1  0
 33 67  1  0
 34 68  1  0
 34 69  1  0
 35 70  1  0
 35 71  1  0
M  END
> <Name>
Molecule

> <AbsoluteEnergy>
64.955

> <Clean Energy>
225.967

> <ConfNumber>
88

> <MOL_NUMBER>
5

> <RelativeEnergy>
16.6529

> <POSE_NUMBER>
31

> <LibDockScore>
123.1503

> <HotSpots>
-1.93,-29.12,49.19,A,34,6
3.47,-25.92,50.78,P,39,18
-6.33,-26.32,51.98,A,57,33

$$$$
Molecule
  SciTegic05072616053D

 71 75  0  0  0  0            999 V2000
    1.6071  -23.6197   52.7894 C   0  0  0  1  0  0
    0.5512  -24.3462   51.9240 C   0  0  0  1  0  0
    0.1738  -25.6971   52.5609 C   0  0  0  1  0  0
    0.9393  -24.5154   50.4699 C   0  0  0  1  0  0
    2.2487  -24.0902   50.1327 C   0  0  0  1  0  0
    2.7306  -24.1424   48.8221 C   0  0  0  1  0  0
    1.9144  -24.6374   47.8075 C   0  0  0  1  0  0
    0.6284  -25.0916   48.1144 C   0  0  0  1  0  0
    0.1014  -25.0693   49.4343 C   0  0  0  1  0  0
   -1.3183  -25.6683   49.5514 C   0  0  0  1  0  0
   -2.1634  -25.1657   48.3712 C   0  0  0  1  0  0
   -2.6802  -25.9474   47.6049 O   0  0  0  1  0  0
   -2.3326  -23.8102   48.1726 N   0  0  0  1  0  0
   -2.8873  -23.2756   46.8995 C   0  0  0  1  0  0
   -2.9701  -21.8120   46.8853 N   0  0  0  1  0  0
   -3.9471  -21.5181   45.8462 C   0  0  0  1  0  0
   -4.8241  -22.7607   45.7314 C   0  0  0  1  0  0
   -4.2469  -23.7533   46.6313 N   0  0  0  1  0  0
   -2.1526  -25.3679   50.8362 C   0  0  0  1  0  0
   -3.4716  -26.1554   50.9255 C   0  0  0  1  0  0
   -3.2063  -27.6157   50.8796 N   0  0  0  1  0  0
   -3.6018  -28.4969   51.8836 C   0  0  0  1  0  0
   -3.0044  -29.7732   52.0015 C   0  0  0  1  0  0
   -3.3848  -30.6536   53.0280 C   0  0  0  1  0  0
   -4.3750  -30.2779   53.9521 C   0  0  0  1  0  0
   -4.7738  -31.2169   55.0655 C   0  0  0  1  0  0
   -3.8625  -31.1075   56.2789 C   0  0  0  1  0  0
   -2.7643  -31.6113   56.2355 O   0  0  0  1  0  0
   -4.2865  -30.4613   57.3642 O   0  0  0  1  0  0
   -6.2478  -31.5047   55.3050 C   0  0  0  1  0  0
   -5.3597  -32.5791   54.7265 C   0  0  0  1  0  0
   -4.9882  -29.0185   53.8359 C   0  0  0  1  0  0
   -4.6047  -28.1357   52.8128 C   0  0  0  1  0  0
   -2.4585  -28.0531   49.6740 C   0  0  0  1  0  0
   -1.1640  -27.2296   49.5032 C   0  0  0  1  0  0
    2.4961  -24.2454   52.8683 H   0  0
    1.1976  -23.4504   53.7853 H   0  0
    1.8686  -22.6654   52.3322 H   0  0
   -0.3217  -23.6936   51.9078 H   0  0
   -0.2313  -25.5214   53.5575 H   0  0
    1.0672  -26.3164   52.6405 H   0  0
   -0.5703  -26.2026   51.9454 H   0  0
    2.8999  -23.7107   50.9201 H   0  0
    3.7394  -23.7978   48.5949 H   0  0
    2.2765  -24.6704   46.7799 H   0  0
    0.0045  -25.4786   47.3088 H   0  0
   -2.0589  -23.1290   48.9511 H   0  0
   -2.1893  -23.6332   46.1425 H   0  0
   -2.0209  -21.3906   46.6278 H   0  0
   -4.5549  -20.6616   46.1378 H   0  0
   -3.4407  -21.3337   44.8987 H   0  0
   -5.8421  -22.5255   46.0421 H   0  0
   -4.8070  -23.1340   44.7074 H   0  0
   -4.2123  -24.7084   46.1501 H   0  0
   -2.3781  -24.3020   50.8692 H   0  0
   -1.5461  -25.5996   51.7117 H   0  0
   -4.1153  -25.8799   50.0901 H   0  0
   -3.9764  -25.9101   51.8599 H   0  0
   -2.2394  -30.0776   51.2872 H   0  0
   -2.9103  -31.6316   53.1081 H   0  0
   -5.1818  -30.9412   57.6300 H   0  0
   -6.8745  -31.0459   54.5403 H   0  0
   -6.4544  -31.6788   56.3610 H   0  0
   -5.0933  -33.3264   55.4739 H   0  0
   -5.5121  -32.6925   53.6532 H   0  0
   -5.7646  -28.7256   54.5427 H   0  0
   -5.0858  -27.1608   52.7342 H   0  0
   -2.2033  -29.1083   49.7720 H   0  0
   -3.0865  -27.9225   48.7927 H   0  0
   -0.7066  -27.5021   48.5521 H   0  0
   -0.4601  -27.5320   50.2785 H   0  0
  1  2  1  0
  2  3  1  0
  2  4  1  0
  4  5  2  0
  4  9  1  0
  5  6  1  0
  6  7  2  0
  7  8  1  0
  8  9  2  0
  9 10  1  0
 10 11  1  0
 10 19  1  0
 10 35  1  0
 11 12  2  0
 11 13  1  0
 13 14  1  0
 14 15  1  0
 14 18  1  0
 15 16  1  0
 16 17  1  0
 17 18  1  0
 19 20  1  0
 20 21  1  0
 21 22  1  0
 21 34  1  0
 22 23  2  0
 22 33  1  0
 23 24  1  0
 24 25  2  0
 25 26  1  0
 25 32  1  0
 26 27  1  0
 26 30  1  0
 26 31  1  0
 27 28  2  0
 27 29  1  0
 30 31  1  0
 32 33  2  0
 34 35  1  0
  1 36  1  0
  1 37  1  0
  1 38  1  0
  2 39  1  0
  3 40  1  0
  3 41  1  0
  3 42  1  0
  5 43  1  0
  6 44  1  0
  7 45  1  0
  8 46  1  0
 13 47  1  0
 14 48  1  0
 15 49  1  0
 16 50  1  0
 16 51  1  0
 17 52  1  0
 17 53  1  0
 18 54  1  0
 19 55  1  0
 19 56  1  0
 20 57  1  0
 20 58  1  0
 23 59  1  0
 24 60  1  0
 29 61  1  0
 30 62  1  0
 30 63  1  0
 31 64  1  0
 31 65  1  0
 32 66  1  0
 33 67  1  0
 34 68  1  0
 34 69  1  0
 35 70  1  0
 35 71  1  0
M  END
> <Name>
Molecule

> <AbsoluteEnergy>
57.9709

> <Clean Energy>
225.967

> <ConfNumber>
43

> <MOL_NUMBER>
5

> <RelativeEnergy>
9.66878

> <POSE_NUMBER>
32

> <LibDockScore>
122.9989

> <HotSpots>
-0.33,-25.52,53.19,A,64,3
-5.13,-22.92,46.19,A,18,17
-4.93,-33.72,54.59,P,51,28

$$$$
Molecule
  SciTegic05072616053D

 71 75  0  0  0  0            999 V2000
   -5.3154  -22.8799   48.7267 C   0  0  0  1  0  0
   -4.5791  -23.2199   47.4091 C   0  0  0  1  0  0
   -4.8812  -24.5919   46.7671 C   0  0  0  1  0  0
   -3.1254  -22.7786   47.2762 C   0  0  0  1  0  0
   -2.9137  -21.8629   46.2131 C   0  0  0  1  0  0
   -1.6670  -21.2915   45.9549 C   0  0  0  1  0  0
   -0.5842  -21.6198   46.7638 C   0  0  0  1  0  0
   -0.7499  -22.5348   47.8072 C   0  0  0  1  0  0
   -1.9911  -23.1753   48.0858 C   0  0  0  1  0  0
   -1.9761  -24.2080   49.2357 C   0  0  0  1  0  0
   -0.5363  -24.4563   49.7564 C   0  0  0  1  0  0
    0.2925  -24.9290   49.0091 O   0  0  0  1  0  0
   -0.1512  -24.1694   51.0529 N   0  0  0  1  0  0
    1.2819  -24.0778   51.4217 C   0  0  0  1  0  0
    1.4388  -23.6336   52.8062 N   0  0  0  1  0  0
    2.6429  -24.2833   53.2854 C   0  0  0  1  0  0
    2.6452  -25.6204   52.5699 C   0  0  0  1  0  0
    1.9185  -25.3965   51.3260 N   0  0  0  1  0  0
   -2.9202  -23.7108   50.3783 C   0  0  0  1  0  0
   -3.1040  -24.7150   51.5350 C   0  0  0  1  0  0
   -3.4819  -26.0629   51.0267 N   0  0  0  1  0  0
   -4.6183  -26.7405   51.4602 C   0  0  0  1  0  0
   -5.7771  -26.0325   51.8535 C   0  0  0  1  0  0
   -6.9225  -26.7164   52.2922 C   0  0  0  1  0  0
   -6.9334  -28.1209   52.3392 C   0  0  0  1  0  0
   -8.1657  -28.8554   52.8094 C   0  0  0  1  0  0
   -8.5418  -28.5178   54.2422 C   0  0  0  1  0  0
   -9.3394  -27.6313   54.4480 O   0  0  0  1  0  0
   -7.9823  -29.2075   55.2361 O   0  0  0  1  0  0
   -8.4208  -30.2733   52.3202 C   0  0  0  1  0  0
   -9.2842  -29.1417   51.8188 C   0  0  0  1  0  0
   -5.7880  -28.8363   51.9486 C   0  0  0  1  0  0
   -4.6405  -28.1527   51.5149 C   0  0  0  1  0  0
   -2.5549  -26.6241   50.0046 C   0  0  0  1  0  0
   -2.4228  -25.6462   48.8199 C   0  0  0  1  0  0
   -5.0656  -23.6777   49.4261 H   0  0
   -6.3799  -22.9577   48.5058 H   0  0
   -5.0525  -21.8978   49.1197 H   0  0
   -5.1021  -22.5161   46.7616 H   0  0
   -5.9588  -24.6181   46.6053 H   0  0
   -4.6445  -25.3381   47.5255 H   0  0
   -4.3273  -24.7609   45.8437 H   0  0
   -3.7559  -21.5960   45.5746 H   0  0
   -1.5429  -20.5940   45.1265 H   0  0
    0.3901  -21.1651   46.5846 H   0  0
    0.1093  -22.7687   48.4359 H   0  0
   -0.8990  -24.0110   51.8017 H   0  0
    1.7428  -23.3665   50.7363 H   0  0
    1.5590  -22.5709   52.8384 H   0  0
    2.5872  -24.4358   54.3632 H   0  0
    3.5223  -23.7052   53.0014 H   0  0
    3.6692  -25.9252   52.3540 H   0  0
    2.1298  -26.3675   53.1735 H   0  0
    1.1702  -26.1515   51.2038 H   0  0
   -2.5215  -22.7806   50.7830 H   0  0
   -3.8981  -23.4847   49.9533 H   0  0
   -2.1721  -24.7921   52.0951 H   0  0
   -3.8843  -24.3538   52.2049 H   0  0
   -5.7815  -24.9432   51.8158 H   0  0
   -7.8062  -26.1559   52.5973 H   0  0
   -6.9474  -29.0925   55.1006 H   0  0
   -8.9362  -30.8696   53.0731 H   0  0
   -7.6844  -30.5777   51.5765 H   0  0
   -9.0089  -28.8432   50.8073 H   0  0
  -10.2598  -29.1340   52.3048 H   0  0
   -5.7906  -29.9258   51.9825 H   0  0
   -3.7571  -28.7175   51.2171 H   0  0
   -2.9443  -27.5767   49.6453 H   0  0
   -1.5744  -26.7830   50.4534 H   0  0
   -1.7000  -26.0496   48.1108 H   0  0
   -3.3831  -25.5828   48.3081 H   0  0
  1  2  1  0
  2  3  1  0
  2  4  1  0
  4  5  2  0
  4  9  1  0
  5  6  1  0
  6  7  2  0
  7  8  1  0
  8  9  2  0
  9 10  1  0
 10 11  1  0
 10 19  1  0
 10 35  1  0
 11 12  2  0
 11 13  1  0
 13 14  1  0
 14 15  1  0
 14 18  1  0
 15 16  1  0
 16 17  1  0
 17 18  1  0
 19 20  1  0
 20 21  1  0
 21 22  1  0
 21 34  1  0
 22 23  2  0
 22 33  1  0
 23 24  1  0
 24 25  2  0
 25 26  1  0
 25 32  1  0
 26 27  1  0
 26 30  1  0
 26 31  1  0
 27 28  2  0
 27 29  1  0
 30 31  1  0
 32 33  2  0
 34 35  1  0
  1 36  1  0
  1 37  1  0
  1 38  1  0
  2 39  1  0
  3 40  1  0
  3 41  1  0
  3 42  1  0
  5 43  1  0
  6 44  1  0
  7 45  1  0
  8 46  1  0
 13 47  1  0
 14 48  1  0
 15 49  1  0
 16 50  1  0
 16 51  1  0
 17 52  1  0
 17 53  1  0
 18 54  1  0
 19 55  1  0
 19 56  1  0
 20 57  1  0
 20 58  1  0
 23 59  1  0
 24 60  1  0
 29 61  1  0
 30 62  1  0
 30 63  1  0
 31 64  1  0
 31 65  1  0
 32 66  1  0
 33 67  1  0
 34 68  1  0
 34 69  1  0
 35 70  1  0
 35 71  1  0
M  END
> <Name>
Molecule

> <AbsoluteEnergy>
65.7679

> <Clean Energy>
225.967

> <ConfNumber>
92

> <MOL_NUMBER>
5

> <RelativeEnergy>
17.4658

> <POSE_NUMBER>
33

> <LibDockScore>
122.8505

> <HotSpots>
-1.73,-21.72,46.78,A,24,7
-6.33,-26.32,51.98,A,57,23
-9.53,-30.12,52.78,A,62,30

$$$$
Molecule
  SciTegic05072616053D

 71 75  0  0  0  0            999 V2000
   -1.1058  -25.6100   45.9781 C   0  0  0  1  0  0
   -2.2248  -26.0861   46.9248 C   0  0  0  1  0  0
   -2.8255  -27.4240   46.4545 C   0  0  0  1  0  0
   -3.2887  -25.0286   47.1235 C   0  0  0  1  0  0
   -4.1161  -24.7437   46.0145 C   0  0  0  1  0  0
   -5.1122  -23.7647   46.0845 C   0  0  0  1  0  0
   -5.2961  -23.0486   47.2692 C   0  0  0  1  0  0
   -4.4916  -23.3195   48.3835 C   0  0  0  1  0  0
   -3.4860  -24.3196   48.3542 C   0  0  0  1  0  0
   -2.6446  -24.6149   49.6075 C   0  0  0  1  0  0
   -1.2295  -24.0369   49.4329 C   0  0  0  1  0  0
   -1.0088  -23.1801   48.6048 O   0  0  0  1  0  0
   -0.1865  -24.4929   50.2115 N   0  0  0  1  0  0
    1.1214  -23.7962   50.2195 C   0  0  0  1  0  0
    1.8039  -23.9668   48.9416 N   0  0  0  1  0  0
    3.2242  -23.8408   49.2261 C   0  0  0  1  0  0
    3.3758  -24.1601   50.7078 C   0  0  0  1  0  0
    2.0254  -24.3717   51.2102 N   0  0  0  1  0  0
   -2.6255  -26.1724   49.8569 C   0  0  0  1  0  0
   -2.9431  -26.5994   51.2997 C   0  0  0  1  0  0
   -4.2723  -26.0600   51.7035 N   0  0  0  1  0  0
   -5.3237  -26.8593   52.1613 C   0  0  0  1  0  0
   -5.1267  -28.2168   52.5123 C   0  0  0  1  0  0
   -6.1907  -29.0036   52.9821 C   0  0  0  1  0  0
   -7.4782  -28.4549   53.1032 C   0  0  0  1  0  0
   -8.6254  -29.3037   53.6099 C   0  0  0  1  0  0
   -9.4710  -29.9384   52.4976 C   0  0  0  1  0  0
   -8.9711  -30.1736   51.4209 O   0  0  0  1  0  0
  -10.7546  -30.2311   52.7128 O   0  0  0  1  0  0
   -9.3204  -28.8702   54.8925 C   0  0  0  1  0  0
   -8.4180  -30.0815   54.9025 C   0  0  0  1  0  0
   -7.6940  -27.1132   52.7462 C   0  0  0  1  0  0
   -6.6294  -26.3252   52.2800 C   0  0  0  1  0  0
   -4.4202  -24.5827   51.5634 C   0  0  0  1  0  0
   -3.1815  -23.9220   50.9129 C   0  0  0  1  0  0
   -1.5218  -25.4912   44.9776 H   0  0
   -0.3252  -26.3703   45.9499 H   0  0
   -0.6927  -24.6631   46.3257 H   0  0
   -1.7705  -26.2583   47.9005 H   0  0
   -2.0323  -28.1710   46.4228 H   0  0
   -3.2289  -27.2919   45.4505 H   0  0
   -3.6143  -27.7452   47.1348 H   0  0
   -3.9754  -25.2976   45.0864 H   0  0
   -5.7421  -23.5615   45.2184 H   0  0
   -6.0657  -22.2788   47.3268 H   0  0
   -4.6424  -22.7461   49.2981 H   0  0
   -0.3237  -25.3629   50.8190 H   0  0
    0.9032  -22.7503   50.4354 H   0  0
    1.4997  -23.2008   48.2592 H   0  0
    3.7892  -24.5592   48.6321 H   0  0
    3.5561  -22.8211   49.0307 H   0  0
    3.9660  -25.0678   50.8334 H   0  0
    3.8372  -23.3185   51.2245 H   0  0
    1.9040  -23.8711   52.1480 H   0  0
   -1.6423  -26.5588   49.5884 H   0  0
   -3.3463  -26.6428   49.1881 H   0  0
   -2.1764  -26.2122   51.9708 H   0  0
   -2.9603  -27.6876   51.3606 H   0  0
   -4.1344  -28.6576   52.4164 H   0  0
   -6.0168  -30.0447   53.2540 H   0  0
  -11.1838  -29.3223   53.0169 H   0  0
  -10.3731  -29.1530   54.8924 H   0  0
   -8.8335  -28.0021   55.3369 H   0  0
   -7.4506  -29.8586   55.3525 H   0  0
   -8.9900  -31.0093   54.9063 H   0  0
   -8.6916  -26.6824   52.8315 H   0  0
   -6.8111  -25.2862   52.0052 H   0  0
   -4.5792  -24.1458   52.5493 H   0  0
   -5.2980  -24.3701   50.9532 H   0  0
   -3.4247  -22.8849   50.6818 H   0  0
   -2.3774  -23.8964   51.6483 H   0  0
  1  2  1  0
  2  3  1  0
  2  4  1  0
  4  5  2  0
  4  9  1  0
  5  6  1  0
  6  7  2  0
  7  8  1  0
  8  9  2  0
  9 10  1  0
 10 11  1  0
 10 19  1  0
 10 35  1  0
 11 12  2  0
 11 13  1  0
 13 14  1  0
 14 15  1  0
 14 18  1  0
 15 16  1  0
 16 17  1  0
 17 18  1  0
 19 20  1  0
 20 21  1  0
 21 22  1  0
 21 34  1  0
 22 23  2  0
 22 33  1  0
 23 24  1  0
 24 25  2  0
 25 26  1  0
 25 32  1  0
 26 27  1  0
 26 30  1  0
 26 31  1  0
 27 28  2  0
 27 29  1  0
 30 31  1  0
 32 33  2  0
 34 35  1  0
  1 36  1  0
  1 37  1  0
  1 38  1  0
  2 39  1  0
  3 40  1  0
  3 41  1  0
  3 42  1  0
  5 43  1  0
  6 44  1  0
  7 45  1  0
  8 46  1  0
 13 47  1  0
 14 48  1  0
 15 49  1  0
 16 50  1  0
 16 51  1  0
 17 52  1  0
 17 53  1  0
 18 54  1  0
 19 55  1  0
 19 56  1  0
 20 57  1  0
 20 58  1  0
 23 59  1  0
 24 60  1  0
 29 61  1  0
 30 62  1  0
 30 63  1  0
 31 64  1  0
 31 65  1  0
 32 66  1  0
 33 67  1  0
 34 68  1  0
 34 69  1  0
 35 70  1  0
 35 71  1  0
M  END
> <Name>
Molecule

> <AbsoluteEnergy>
55.9033

> <Clean Energy>
225.967

> <ConfNumber>
34

> <MOL_NUMBER>
5

> <RelativeEnergy>
7.60119

> <POSE_NUMBER>
34

> <LibDockScore>
122.3389

> <HotSpots>
-4.93,-23.52,47.59,A,26,6
-5.33,-24.12,49.78,A,36,8
-10.93,-30.92,53.98,A,68,30

$$$$
Molecule
  SciTegic05072616053D

 71 75  0  0  0  0            999 V2000
   -0.6715  -24.0322   46.7640 C   0  0  0  1  0  0
   -1.7714  -24.9432   47.3439 C   0  0  0  1  0  0
   -2.1069  -26.0978   46.3817 C   0  0  0  1  0  0
   -3.0057  -24.1625   47.7403 C   0  0  0  1  0  0
   -3.7582  -23.5889   46.6917 C   0  0  0  1  0  0
   -4.9005  -22.8246   46.9514 C   0  0  0  1  0  0
   -5.3101  -22.6193   48.2703 C   0  0  0  1  0  0
   -4.5833  -23.1854   49.3256 C   0  0  0  1  0  0
   -3.4312  -23.9817   49.0978 C   0  0  0  1  0  0
   -2.6766  -24.6157   50.2787 C   0  0  0  1  0  0
   -1.2515  -24.0402   50.3549 C   0  0  0  1  0  0
   -0.9329  -23.0843   49.6812 O   0  0  0  1  0  0
   -0.3103  -24.6103   51.1863 N   0  0  0  1  0  0
    1.0809  -24.1012   51.2278 C   0  0  0  1  0  0
    1.7528  -24.3463   49.9539 N   0  0  0  1  0  0
    3.1588  -24.4710   50.2855 C   0  0  0  1  0  0
    3.1608  -25.1213   51.6574 C   0  0  0  1  0  0
    1.8672  -24.7994   52.2496 N   0  0  0  1  0  0
   -2.6803  -26.1835   50.1074 C   0  0  0  1  0  0
   -3.0878  -26.9700   51.3645 C   0  0  0  1  0  0
   -4.4400  -26.5345   51.8170 N   0  0  0  1  0  0
   -5.5196  -27.4075   51.9931 C   0  0  0  1  0  0
   -5.3626  -28.8138   51.9293 C   0  0  0  1  0  0
   -6.4571  -29.6738   52.1186 C   0  0  0  1  0  0
   -7.7364  -29.1496   52.3663 C   0  0  0  1  0  0
   -8.9128  -30.0746   52.5665 C   0  0  0  1  0  0
   -9.2075  -30.9254   51.3401 C   0  0  0  1  0  0
   -9.8387  -30.4428   50.4284 O   0  0  0  1  0  0
   -8.7677  -32.1820   51.2893 O   0  0  0  1  0  0
  -10.0825  -29.6165   53.4241 C   0  0  0  1  0  0
   -9.1530  -30.6886   53.9377 C   0  0  0  1  0  0
   -7.9133  -27.7575   52.4215 C   0  0  0  1  0  0
   -6.8183  -26.8974   52.2369 C   0  0  0  1  0  0
   -4.5771  -25.0679   52.0558 C   0  0  0  1  0  0
   -3.2969  -24.2823   51.6843 C   0  0  0  1  0  0
   -1.0191  -23.6259   45.8142 H   0  0
    0.2218  -24.6315   46.5881 H   0  0
   -0.4468  -23.2215   47.4571 H   0  0
   -1.3756  -25.3851   48.2583 H   0  0
   -1.2032  -26.6822   46.2086 H   0  0
   -2.4442  -25.6766   45.4346 H   0  0
   -2.8854  -26.7312   46.8070 H   0  0
   -3.4427  -23.7449   45.6601 H   0  0
   -5.4682  -22.3913   46.1280 H   0  0
   -6.1954  -22.0185   48.4788 H   0  0
   -4.9118  -23.0093   50.3499 H   0  0
   -0.5889  -25.4330   51.8111 H   0  0
    1.0189  -23.0353   51.4470 H   0  0
    1.6042  -23.5170   49.2942 H   0  0
    3.6601  -25.1171   49.5648 H   0  0
    3.6234  -23.4864   50.3381 H   0  0
    3.9630  -24.7042   52.2662 H   0  0
    3.2656  -26.2015   51.5564 H   0  0
    1.3680  -25.7006   52.5387 H   0  0
   -1.6844  -26.5056   49.8034 H   0  0
   -3.3609  -26.4454   49.2973 H   0  0
   -2.3642  -26.7865   52.1587 H   0  0
   -3.1087  -28.0353   51.1348 H   0  0
   -4.3773  -29.2352   51.7302 H   0  0
   -6.3128  -30.7532   52.0730 H   0  0
   -9.1637  -32.6399   52.1472 H   0  0
  -11.0250  -30.0359   53.0722 H   0  0
   -9.8819  -28.6523   53.8911 H   0  0
   -8.4569  -30.2963   54.6791 H   0  0
   -9.5993  -31.6799   53.8587 H   0  0
   -8.9040  -27.3430   52.6083 H   0  0
   -6.9705  -25.8190   52.2820 H   0  0
   -4.8046  -24.8986   53.1083 H   0  0
   -5.4107  -24.6886   51.4647 H   0  0
   -3.5226  -23.2166   51.7215 H   0  0
   -2.5431  -24.4679   52.4495 H   0  0
  1  2  1  0
  2  3  1  0
  2  4  1  0
  4  5  2  0
  4  9  1  0
  5  6  1  0
  6  7  2  0
  7  8  1  0
  8  9  2  0
  9 10  1  0
 10 11  1  0
 10 19  1  0
 10 35  1  0
 11 12  2  0
 11 13  1  0
 13 14  1  0
 14 15  1  0
 14 18  1  0
 15 16  1  0
 16 17  1  0
 17 18  1  0
 19 20  1  0
 20 21  1  0
 21 22  1  0
 21 34  1  0
 22 23  2  0
 22 33  1  0
 23 24  1  0
 24 25  2  0
 25 26  1  0
 25 32  1  0
 26 27  1  0
 26 30  1  0
 26 31  1  0
 27 28  2  0
 27 29  1  0
 30 31  1  0
 32 33  2  0
 34 35  1  0
  1 36  1  0
  1 37  1  0
  1 38  1  0
  2 39  1  0
  3 40  1  0
  3 41  1  0
  3 42  1  0
  5 43  1  0
  6 44  1  0
  7 45  1  0
  8 46  1  0
 13 47  1  0
 14 48  1  0
 15 49  1  0
 16 50  1  0
 16 51  1  0
 17 52  1  0
 17 53  1  0
 18 54  1  0
 19 55  1  0
 19 56  1  0
 20 57  1  0
 20 58  1  0
 23 59  1  0
 24 60  1  0
 29 61  1  0
 30 62  1  0
 30 63  1  0
 31 64  1  0
 31 65  1  0
 32 66  1  0
 33 67  1  0
 34 68  1  0
 34 69  1  0
 35 70  1  0
 35 71  1  0
M  END
> <Name>
Molecule

> <AbsoluteEnergy>
52.9295

> <Clean Energy>
225.967

> <ConfNumber>
26

> <MOL_NUMBER>
5

> <RelativeEnergy>
4.62733

> <POSE_NUMBER>
35

> <LibDockScore>
121.7822

> <HotSpots>
-4.93,-23.52,47.59,A,26,5
2.67,-23.92,48.98,A,32,16
3.07,-24.52,50.38,A,43,17

$$$$
Molecule
  SciTegic05072616053D

 71 75  0  0  0  0            999 V2000
   -3.5993  -25.6215   45.9540 C   0  0  0  1  0  0
   -2.2987  -25.5690   46.7787 C   0  0  0  1  0  0
   -1.0525  -25.6197   45.8742 C   0  0  0  1  0  0
   -2.2629  -26.6396   47.8466 C   0  0  0  1  0  0
   -2.3426  -27.9772   47.3975 C   0  0  0  1  0  0
   -2.3377  -29.0489   48.2959 C   0  0  0  1  0  0
   -2.2531  -28.8008   49.6672 C   0  0  0  1  0  0
   -2.1660  -27.4840   50.1351 C   0  0  0  1  0  0
   -2.1561  -26.3725   49.2521 C   0  0  0  1  0  0
   -2.0379  -24.9487   49.8239 C   0  0  0  1  0  0
   -0.7283  -24.2790   49.3920 C   0  0  0  1  0  0
   -0.7525  -23.2735   48.7174 O   0  0  0  1  0  0
    0.4852  -24.8154   49.7705 N   0  0  0  1  0  0
    1.7558  -24.3238   49.1879 C   0  0  0  1  0  0
    2.8910  -25.1126   49.6849 N   0  0  0  1  0  0
    3.8255  -24.1789   50.2995 C   0  0  0  1  0  0
    3.4179  -22.8131   49.7846 C   0  0  0  1  0  0
    1.9877  -22.9345   49.5815 N   0  0  0  1  0  0
   -3.2852  -24.1163   49.3962 C   0  0  0  1  0  0
   -4.6182  -24.7230   49.8879 C   0  0  0  1  0  0
   -4.5234  -25.2477   51.2830 N   0  0  0  1  0  0
   -5.4385  -26.1808   51.7736 C   0  0  0  1  0  0
   -6.7713  -26.1899   51.2983 C   0  0  0  1  0  0
   -7.7047  -27.1201   51.7834 C   0  0  0  1  0  0
   -7.3265  -28.0602   52.7563 C   0  0  0  1  0  0
   -8.3313  -29.0578   53.2808 C   0  0  0  1  0  0
   -8.8004  -30.0360   52.2166 C   0  0  0  1  0  0
   -9.8602  -29.8429   51.6659 O   0  0  0  1  0  0
   -8.0311  -31.0818   51.9175 O   0  0  0  1  0  0
   -9.3251  -28.6252   54.3482 C   0  0  0  1  0  0
   -8.2009  -29.5642   54.7092 C   0  0  0  1  0  0
   -6.0053  -28.0675   53.2349 C   0  0  0  1  0  0
   -5.0701  -27.1409   52.7459 C   0  0  0  1  0  0
   -3.3896  -24.7091   52.0906 C   0  0  0  1  0  0
   -2.0142  -24.8710   51.3961 C   0  0  0  1  0  0
   -3.6063  -26.5447   45.3746 H   0  0
   -3.6109  -24.7737   45.2691 H   0  0
   -4.4683  -25.5846   46.6109 H   0  0
   -2.2844  -24.6089   47.2945 H   0  0
   -1.0851  -24.7719   45.1899 H   0  0
   -1.0805  -26.5430   45.2955 H   0  0
   -0.1441  -25.5815   46.4753 H   0  0
   -2.4093  -28.1778   46.3282 H   0  0
   -2.3996  -30.0728   47.9274 H   0  0
   -2.2549  -29.6315   50.3729 H   0  0
   -2.1040  -27.3072   51.2089 H   0  0
    0.5092  -25.6001   50.4975 H   0  0
    1.6759  -24.4117   48.1044 H   0  0
    2.5508  -25.8172   50.4147 H   0  0
    4.8442  -24.4059   49.9852 H   0  0
    3.7282  -24.2116   51.3847 H   0  0
    3.6290  -22.0509   50.5346 H   0  0
    3.9166  -22.6035   48.8383 H   0  0
    1.6732  -22.2760   48.7990 H   0  0
   -3.3093  -24.0460   48.3087 H   0  0
   -3.1896  -23.1056   49.7931 H   0  0
   -5.3940  -23.9583   49.8483 H   0  0
   -4.9080  -25.5360   49.2222 H   0  0
   -7.0778  -25.4644   50.5448 H   0  0
   -8.7264  -27.1127   51.4037 H   0  0
   -7.8865  -31.5847   52.8278 H   0  0
  -10.2738  -29.1526   54.2488 H   0  0
   -9.1268  -27.6095   54.6903 H   0  0
   -7.4031  -29.0497   55.2448 H   0  0
   -8.5495  -30.5928   54.8017 H   0  0
   -5.7051  -28.7953   53.9887 H   0  0
   -4.0466  -27.1615   53.1203 H   0  0
   -3.3633  -25.2237   53.0511 H   0  0
   -3.5656  -23.6510   52.2844 H   0  0
   -1.3783  -24.0370   51.6930 H   0  0
   -1.5384  -25.7733   51.7802 H   0  0
  1  2  1  0
  2  3  1  0
  2  4  1  0
  4  5  2  0
  4  9  1  0
  5  6  1  0
  6  7  2  0
  7  8  1  0
  8  9  2  0
  9 10  1  0
 10 11  1  0
 10 19  1  0
 10 35  1  0
 11 12  2  0
 11 13  1  0
 13 14  1  0
 14 15  1  0
 14 18  1  0
 15 16  1  0
 16 17  1  0
 17 18  1  0
 19 20  1  0
 20 21  1  0
 21 22  1  0
 21 34  1  0
 22 23  2  0
 22 33  1  0
 23 24  1  0
 24 25  2  0
 25 26  1  0
 25 32  1  0
 26 27  1  0
 26 30  1  0
 26 31  1  0
 27 28  2  0
 27 29  1  0
 30 31  1  0
 32 33  2  0
 34 35  1  0
  1 36  1  0
  1 37  1  0
  1 38  1  0
  2 39  1  0
  3 40  1  0
  3 41  1  0
  3 42  1  0
  5 43  1  0
  6 44  1  0
  7 45  1  0
  8 46  1  0
 13 47  1  0
 14 48  1  0
 15 49  1  0
 16 50  1  0
 16 51  1  0
 17 52  1  0
 17 53  1  0
 18 54  1  0
 19 55  1  0
 19 56  1  0
 20 57  1  0
 20 58  1  0
 23 59  1  0
 24 60  1  0
 29 61  1  0
 30 62  1  0
 30 63  1  0
 31 64  1  0
 31 65  1  0
 32 66  1  0
 33 67  1  0
 34 68  1  0
 34 69  1  0
 35 70  1  0
 35 71  1  0
M  END
> <Name>
Molecule

> <AbsoluteEnergy>
52.0001

> <Clean Energy>
225.967

> <ConfNumber>
18

> <MOL_NUMBER>
5

> <RelativeEnergy>
3.69796

> <POSE_NUMBER>
36

> <LibDockScore>
121.713

> <HotSpots>
-0.93,-23.32,46.98,A,25,3
4.07,-23.72,49.78,A,37,16
-6.33,-26.32,51.98,A,57,23

$$$$
Molecule
  SciTegic05072616053D

 71 75  0  0  0  0            999 V2000
   -3.5274  -25.6375   45.9317 C   0  0  0  1  0  0
   -2.2576  -25.5710   46.8021 C   0  0  0  1  0  0
   -0.9794  -25.6223   45.9434 C   0  0  0  1  0  0
   -2.2546  -26.6325   47.8797 C   0  0  0  1  0  0
   -2.3257  -27.9736   47.4399 C   0  0  0  1  0  0
   -2.3489  -29.0376   48.3472 C   0  0  0  1  0  0
   -2.3016  -28.7779   49.7182 C   0  0  0  1  0  0
   -2.2237  -27.4574   50.1771 C   0  0  0  1  0  0
   -2.1861  -26.3536   49.2853 C   0  0  0  1  0  0
   -2.0798  -24.9252   49.8480 C   0  0  0  1  0  0
   -0.7711  -24.2511   49.4201 C   0  0  0  1  0  0
   -0.7969  -23.2254   48.7767 O   0  0  0  1  0  0
    0.4433  -24.8064   49.7668 N   0  0  0  1  0  0
    1.7099  -24.3053   49.1837 C   0  0  0  1  0  0
    2.8498  -25.0941   49.6697 N   0  0  0  1  0  0
    3.7833  -24.1622   50.2886 C   0  0  0  1  0  0
    3.3687  -22.7936   49.7868 C   0  0  0  1  0  0
    1.9383  -22.9185   49.5881 N   0  0  0  1  0  0
   -3.3289  -24.1029   49.4063 C   0  0  0  1  0  0
   -4.6616  -24.7137   49.8935 C   0  0  0  1  0  0
   -4.5731  -25.2283   51.2928 N   0  0  0  1  0  0
   -5.4862  -26.1632   51.7838 C   0  0  0  1  0  0
   -6.8210  -26.1704   51.3142 C   0  0  0  1  0  0
   -7.7525  -27.1023   51.7998 C   0  0  0  1  0  0
   -7.3700  -28.0462   52.7675 C   0  0  0  1  0  0
   -8.3726  -29.0458   53.2926 C   0  0  0  1  0  0
   -8.8902  -29.9827   52.2139 C   0  0  0  1  0  0
   -9.8343  -29.6394   51.5395 O   0  0  0  1  0  0
   -8.2898  -31.1590   52.0387 O   0  0  0  1  0  0
   -9.3253  -28.6334   54.4046 C   0  0  0  1  0  0
   -8.2045  -29.5992   54.6993 C   0  0  0  1  0  0
   -6.0468  -28.0555   53.2402 C   0  0  0  1  0  0
   -5.1136  -27.1271   52.7508 C   0  0  0  1  0  0
   -3.4478  -24.6777   52.1040 C   0  0  0  1  0  0
   -2.0669  -24.8366   51.4197 C   0  0  0  1  0  0
   -3.5088  -26.5655   45.3603 H   0  0
   -3.5188  -24.7954   45.2396 H   0  0
   -4.4197  -25.5999   46.5567 H   0  0
   -2.2669  -24.6066   47.3099 H   0  0
   -0.9918  -24.7803   45.2513 H   0  0
   -0.9818  -26.5505   45.3719 H   0  0
   -0.0934  -25.5741   46.5764 H   0  0
   -2.3633  -28.1832   46.3709 H   0  0
   -2.4036  -30.0645   47.9858 H   0  0
   -2.3253  -29.6025   50.4307 H   0  0
   -2.1910  -27.2715   51.2506 H   0  0
    0.4710  -25.6132   50.4691 H   0  0
    1.6262  -24.3844   48.0998 H   0  0
    2.5149  -25.8061   50.3948 H   0  0
    4.8016  -24.3828   49.9685 H   0  0
    3.6903  -24.2044   51.3738 H   0  0
    3.5799  -22.0370   50.5424 H   0  0
    3.8630  -22.5741   48.8405 H   0  0
    1.6184  -22.2546   48.8124 H   0  0
   -3.3463  -24.0403   48.3182 H   0  0
   -3.2416  -23.0890   49.7967 H   0  0
   -5.4414  -23.9537   49.8436 H   0  0
   -4.9425  -25.5329   49.2315 H   0  0
   -7.1306  -25.4421   50.5647 H   0  0
   -8.7759  -27.0933   51.4246 H   0  0
   -8.3343  -31.6315   52.9753 H   0  0
  -10.2845  -29.1440   54.3193 H   0  0
   -9.1008  -27.6320   54.7719 H   0  0
   -7.3823  -29.1134   55.2248 H   0  0
   -8.5655  -30.6252   54.7707 H   0  0
   -5.7434  -28.7863   53.9898 H   0  0
   -4.0885  -27.1492   53.1207 H   0  0
   -3.4250  -25.1855   53.0682 H   0  0
   -3.6310  -23.6193   52.2893 H   0  0
   -1.4377  -23.9970   51.7150 H   0  0
   -1.5886  -25.7335   51.8132 H   0  0
  1  2  1  0
  2  3  1  0
  2  4  1  0
  4  5  2  0
  4  9  1  0
  5  6  1  0
  6  7  2  0
  7  8  1  0
  8  9  2  0
  9 10  1  0
 10 11  1  0
 10 19  1  0
 10 35  1  0
 11 12  2  0
 11 13  1  0
 13 14  1  0
 14 15  1  0
 14 18  1  0
 15 16  1  0
 16 17  1  0
 17 18  1  0
 19 20  1  0
 20 21  1  0
 21 22  1  0
 21 34  1  0
 22 23  2  0
 22 33  1  0
 23 24  1  0
 24 25  2  0
 25 26  1  0
 25 32  1  0
 26 27  1  0
 26 30  1  0
 26 31  1  0
 27 28  2  0
 27 29  1  0
 30 31  1  0
 32 33  2  0
 34 35  1  0
  1 36  1  0
  1 37  1  0
  1 38  1  0
  2 39  1  0
  3 40  1  0
  3 41  1  0
  3 42  1  0
  5 43  1  0
  6 44  1  0
  7 45  1  0
  8 46  1  0
 13 47  1  0
 14 48  1  0
 15 49  1  0
 16 50  1  0
 16 51  1  0
 17 52  1  0
 17 53  1  0
 18 54  1  0
 19 55  1  0
 19 56  1  0
 20 57  1  0
 20 58  1  0
 23 59  1  0
 24 60  1  0
 29 61  1  0
 30 62  1  0
 30 63  1  0
 31 64  1  0
 31 65  1  0
 32 66  1  0
 33 67  1  0
 34 68  1  0
 34 69  1  0
 35 70  1  0
 35 71  1  0
M  END
> <Name>
Molecule

> <AbsoluteEnergy>
52.0001

> <Clean Energy>
225.967

> <ConfNumber>
18

> <MOL_NUMBER>
5

> <RelativeEnergy>
3.69796

> <POSE_NUMBER>
37

> <LibDockScore>
121.6027

> <HotSpots>
-0.93,-23.32,46.98,A,25,3
2.47,-25.32,48.78,P,32,15
-9.53,-30.12,52.78,A,62,31

$$$$
Molecule
  SciTegic05072616053D

 71 75  0  0  0  0            999 V2000
   -6.2932  -23.1701   50.4363 C   0  0  0  1  0  0
   -4.7509  -23.1211   50.3245 C   0  0  0  1  0  0
   -4.2196  -21.7634   50.8187 C   0  0  0  1  0  0
   -4.2114  -23.4531   48.9460 C   0  0  0  1  0  0
   -4.5981  -22.5557   47.9182 C   0  0  0  1  0  0
   -4.2022  -22.7306   46.5900 C   0  0  0  1  0  0
   -3.3870  -23.8077   46.2519 C   0  0  0  1  0  0
   -2.9681  -24.6966   47.2463 C   0  0  0  1  0  0
   -3.3511  -24.5646   48.6092 C   0  0  0  1  0  0
   -2.7502  -25.6495   49.5327 C   0  0  0  1  0  0
   -1.2234  -25.6155   49.3572 C   0  0  0  1  0  0
   -0.6486  -26.5349   48.8195 O   0  0  0  1  0  0
   -0.4895  -24.5365   49.8075 N   0  0  0  1  0  0
    0.9879  -24.6081   49.9320 C   0  0  0  1  0  0
    1.6174  -24.7413   48.6215 N   0  0  0  1  0  0
    2.9433  -24.1714   48.7780 C   0  0  0  1  0  0
    2.7591  -23.0588   49.7959 C   0  0  0  1  0  0
    1.5305  -23.3783   50.5158 N   0  0  0  1  0  0
   -3.0605  -25.5849   51.0545 C   0  0  0  1  0  0
   -2.4039  -26.7083   51.8806 C   0  0  0  1  0  0
   -2.8185  -28.0585   51.3980 N   0  0  0  1  0  0
   -3.1858  -29.0754   52.2837 C   0  0  0  1  0  0
   -2.7082  -29.0698   53.6157 C   0  0  0  1  0  0
   -3.0595  -30.0918   54.5143 C   0  0  0  1  0  0
   -3.8937  -31.1439   54.0994 C   0  0  0  1  0  0
   -4.2636  -32.2476   55.0631 C   0  0  0  1  0  0
   -5.0155  -31.7425   56.2832 C   0  0  0  1  0  0
   -6.2205  -31.8465   56.3169 O   0  0  0  1  0  0
   -4.3271  -31.1988   57.2854 O   0  0  0  1  0  0
   -3.3147  -33.4225   55.2479 C   0  0  0  1  0  0
   -4.6210  -33.6234   54.5206 C   0  0  0  1  0  0
   -4.3826  -31.1589   52.7817 C   0  0  0  1  0  0
   -4.0360  -30.1341   51.8844 C   0  0  0  1  0  0
   -2.7815  -28.2571   49.9177 C   0  0  0  1  0  0
   -3.3253  -27.0484   49.1201 C   0  0  0  1  0  0
   -6.7203  -22.3704   49.8312 H   0  0
   -6.5802  -23.0246   51.4777 H   0  0
   -6.6607  -24.1341   50.0846 H   0  0
   -4.3787  -23.9148   50.9723 H   0  0
   -4.5135  -21.6225   51.8588 H   0  0
   -4.6536  -20.9684   50.2124 H   0  0
   -3.1330  -21.7374   50.7365 H   0  0
   -5.2250  -21.7012   48.1730 H   0  0
   -4.5293  -22.0284   45.8232 H   0  0
   -3.0772  -23.9570   45.2176 H   0  0
   -2.3200  -25.5265   46.9647 H   0  0
   -0.9952  -23.6314   50.0718 H   0  0
    1.1980  -25.4710   50.5640 H   0  0
    1.6920  -25.7746   48.3537 H   0  0
    3.2901  -23.7573   47.8312 H   0  0
    3.6321  -24.9219   49.1658 H   0  0
    3.6021  -23.0441   50.4867 H   0  0
    2.6532  -22.1013   49.2859 H   0  0
    0.8261  -22.5813   50.3997 H   0  0
   -2.7237  -24.6231   51.4412 H   0  0
   -4.1402  -25.6315   51.1962 H   0  0
   -1.3199  -26.6203   51.8075 H   0  0
   -2.6905  -26.5997   52.9266 H   0  0
   -2.0583  -28.2610   53.9497 H   0  0
   -2.6834  -30.0683   55.5371 H   0  0
   -3.7826  -30.4139   56.8497 H   0  0
   -3.3557  -33.8137   56.2645 H   0  0
   -2.4733  -33.3688   54.5570 H   0  0
   -4.4767  -33.6777   53.4416 H   0  0
   -5.3594  -34.1211   55.1492 H   0  0
   -5.0338  -31.9693   52.4541 H   0  0
   -4.4273  -30.1550   50.8673 H   0  0
   -3.3691  -29.1397   49.6649 H   0  0
   -1.7522  -28.4466   49.6133 H   0  0
   -3.1194  -27.2115   48.0622 H   0  0
   -4.4098  -27.0233   49.2266 H   0  0
  1  2  1  0
  2  3  1  0
  2  4  1  0
  4  5  2  0
  4  9  1  0
  5  6  1  0
  6  7  2  0
  7  8  1  0
  8  9  2  0
  9 10  1  0
 10 11  1  0
 10 19  1  0
 10 35  1  0
 11 12  2  0
 11 13  1  0
 13 14  1  0
 14 15  1  0
 14 18  1  0
 15 16  1  0
 16 17  1  0
 17 18  1  0
 19 20  1  0
 20 21  1  0
 21 22  1  0
 21 34  1  0
 22 23  2  0
 22 33  1  0
 23 24  1  0
 24 25  2  0
 25 26  1  0
 25 32  1  0
 26 27  1  0
 26 30  1  0
 26 31  1  0
 27 28  2  0
 27 29  1  0
 30 31  1  0
 32 33  2  0
 34 35  1  0
  1 36  1  0
  1 37  1  0
  1 38  1  0
  2 39  1  0
  3 40  1  0
  3 41  1  0
  3 42  1  0
  5 43  1  0
  6 44  1  0
  7 45  1  0
  8 46  1  0
 13 47  1  0
 14 48  1  0
 15 49  1  0
 16 50  1  0
 16 51  1  0
 17 52  1  0
 17 53  1  0
 18 54  1  0
 19 55  1  0
 19 56  1  0
 20 57  1  0
 20 58  1  0
 23 59  1  0
 24 60  1  0
 29 61  1  0
 30 62  1  0
 30 63  1  0
 31 64  1  0
 31 65  1  0
 32 66  1  0
 33 67  1  0
 34 68  1  0
 34 69  1  0
 35 70  1  0
 35 71  1  0
M  END
> <Name>
Molecule

> <AbsoluteEnergy>
57.8729

> <Clean Energy>
225.967

> <ConfNumber>
41

> <MOL_NUMBER>
5

> <RelativeEnergy>
9.5708

> <POSE_NUMBER>
38

> <LibDockScore>
121.1679

> <HotSpots>
-6.13,-22.12,49.98,A,41,1
2.67,-22.92,49.98,A,39,17
-4.33,-32.92,55.19,A,75,30

$$$$
Molecule
  SciTegic05072616053D

 71 75  0  0  0  0            999 V2000
    0.1487  -23.3895   53.8360 C   0  0  0  1  0  0
   -0.4178  -24.3187   52.7387 C   0  0  0  1  0  0
   -0.7359  -25.6959   53.3580 C   0  0  0  1  0  0
    0.4288  -24.4523   51.4854 C   0  0  0  1  0  0
    1.8068  -24.1388   51.6162 C   0  0  0  1  0  0
    2.6910  -24.2096   50.5357 C   0  0  0  1  0  0
    2.2219  -24.6217   49.2896 C   0  0  0  1  0  0
    0.8717  -24.9560   49.1318 C   0  0  0  1  0  0
   -0.0703  -24.8796   50.1988 C   0  0  0  1  0  0
   -1.5213  -25.2824   49.8317 C   0  0  0  1  0  0
   -1.8152  -24.8843   48.3753 C   0  0  0  1  0  0
   -1.7441  -25.7062   47.4896 O   0  0  0  1  0  0
   -2.1740  -23.5869   48.0644 N   0  0  0  1  0  0
   -2.7630  -23.2634   46.7457 C   0  0  0  1  0  0
   -4.0940  -23.8606   46.6576 N   0  0  0  1  0  0
   -4.8309  -23.0057   45.7487 C   0  0  0  1  0  0
   -4.2831  -21.6157   46.0230 C   0  0  0  1  0  0
   -2.9460  -21.8176   46.5741 N   0  0  0  1  0  0
   -2.6945  -24.6509   50.6477 C   0  0  0  1  0  0
   -4.0782  -25.1695   50.2160 C   0  0  0  1  0  0
   -4.1552  -26.6362   50.4628 N   0  0  0  1  0  0
   -5.1195  -27.2106   51.2960 C   0  0  0  1  0  0
   -6.2325  -26.4486   51.7200 C   0  0  0  1  0  0
   -7.2064  -26.9958   52.5712 C   0  0  0  1  0  0
   -7.0852  -28.3179   53.0386 C   0  0  0  1  0  0
   -8.1011  -28.8906   54.0152 C   0  0  0  1  0  0
   -9.2965  -29.6387   53.3926 C   0  0  0  1  0  0
   -9.3891  -29.7505   52.1914 O   0  0  0  1  0  0
  -10.2478  -30.1703   54.1732 O   0  0  0  1  0  0
   -7.5493  -29.3983   55.3412 C   0  0  0  1  0  0
   -8.3508  -28.1194   55.3043 C   0  0  0  1  0  0
   -5.9949  -29.0961   52.6039 C   0  0  0  1  0  0
   -5.0216  -28.5501   51.7442 C   0  0  0  1  0  0
   -3.0933  -27.4217   49.7675 C   0  0  0  1  0  0
   -1.6727  -26.8326   50.0072 C   0  0  0  1  0  0
    1.0611  -23.8209   54.2477 H   0  0
   -0.5875  -23.2680   54.6306 H   0  0
    0.3749  -22.4152   53.4027 H   0  0
   -1.3269  -23.8386   52.3767 H   0  0
   -1.4744  -25.5802   54.1513 H   0  0
    0.1743  -26.1332   53.7685 H   0  0
   -1.1359  -26.3547   52.5872 H   0  0
    2.1880  -23.8330   52.5905 H   0  0
    3.7401  -23.9443   50.6668 H   0  0
    2.9036  -24.6834   48.4414 H   0  0
    0.5266  -25.2884   48.1528 H   0  0
   -2.0247  -22.8088   48.7836 H   0  0
   -2.0830  -23.6454   45.9843 H   0  0
   -4.0263  -24.8502   46.2564 H   0  0
   -5.8961  -23.0396   45.9776 H   0  0
   -4.6289  -23.2902   44.7161 H   0  0
   -4.2210  -21.0507   45.0929 H   0  0
   -4.9124  -21.1044   46.7514 H   0  0
   -2.8675  -21.3274   47.5220 H   0  0
   -2.6696  -23.5680   50.5258 H   0  0
   -2.5492  -24.8707   51.7054 H   0  0
   -4.2268  -24.9719   49.1544 H   0  0
   -4.8524  -24.6632   50.7925 H   0  0
   -6.3365  -25.4182   51.3802 H   0  0
   -8.0626  -26.3921   52.8721 H   0  0
  -10.5897  -29.3643   54.7527 H   0  0
   -6.4810  -29.2013   55.4313 H   0  0
   -8.1379  -30.2313   55.7256 H   0  0
   -9.3664  -28.2703   55.6702 H   0  0
   -7.7099  -27.2405   55.3742 H   0  0
   -5.9033  -30.1303   52.9357 H   0  0
   -4.1829  -29.1663   51.4201 H   0  0
   -3.1179  -28.4501   50.1278 H   0  0
   -3.2991  -27.4305   48.6971 H   0  0
   -0.9770  -27.3261   49.3286 H   0  0
   -1.3560  -27.0991   51.0156 H   0  0
  1  2  1  0
  2  3  1  0
  2  4  1  0
  4  5  2  0
  4  9  1  0
  5  6  1  0
  6  7  2  0
  7  8  1  0
  8  9  2  0
  9 10  1  0
 10 11  1  0
 10 19  1  0
 10 35  1  0
 11 12  2  0
 11 13  1  0
 13 14  1  0
 14 15  1  0
 14 18  1  0
 15 16  1  0
 16 17  1  0
 17 18  1  0
 19 20  1  0
 20 21  1  0
 21 22  1  0
 21 34  1  0
 22 23  2  0
 22 33  1  0
 23 24  1  0
 24 25  2  0
 25 26  1  0
 25 32  1  0
 26 27  1  0
 26 30  1  0
 26 31  1  0
 27 28  2  0
 27 29  1  0
 30 31  1  0
 32 33  2  0
 34 35  1  0
  1 36  1  0
  1 37  1  0
  1 38  1  0
  2 39  1  0
  3 40  1  0
  3 41  1  0
  3 42  1  0
  5 43  1  0
  6 44  1  0
  7 45  1  0
  8 46  1  0
 13 47  1  0
 14 48  1  0
 15 49  1  0
 16 50  1  0
 16 51  1  0
 17 52  1  0
 17 53  1  0
 18 54  1  0
 19 55  1  0
 19 56  1  0
 20 57  1  0
 20 58  1  0
 23 59  1  0
 24 60  1  0
 29 61  1  0
 30 62  1  0
 30 63  1  0
 31 64  1  0
 31 65  1  0
 32 66  1  0
 33 67  1  0
 34 68  1  0
 34 69  1  0
 35 70  1  0
 35 71  1  0
M  END
> <Name>
Molecule

> <AbsoluteEnergy>
60.9856

> <Clean Energy>
225.967

> <ConfNumber>
70

> <MOL_NUMBER>
5

> <RelativeEnergy>
12.6835

> <POSE_NUMBER>
39

> <LibDockScore>
121.071

> <HotSpots>
0.47,-23.32,53.78,A,67,1
-0.33,-25.52,53.19,A,64,3
3.07,-24.52,50.38,A,43,6

$$$$
Molecule
  SciTegic05072616053D

 71 75  0  0  0  0            999 V2000
   -5.3134  -22.7069   47.1077 C   0  0  0  1  0  0
   -4.5255  -23.4707   48.1996 C   0  0  0  1  0  0
   -3.6198  -22.4726   48.9423 C   0  0  0  1  0  0
   -3.7565  -24.6946   47.7304 C   0  0  0  1  0  0
   -3.7934  -24.9666   46.3386 C   0  0  0  1  0  0
   -3.1450  -26.0701   45.7799 C   0  0  0  1  0  0
   -2.4279  -26.9329   46.6013 C   0  0  0  1  0  0
   -2.3559  -26.6829   47.9749 C   0  0  0  1  0  0
   -3.0031  -25.5765   48.5935 C   0  0  0  1  0  0
   -2.8035  -25.4299   50.1263 C   0  0  0  1  0  0
   -1.5380  -24.6207   50.4412 C   0  0  0  1  0  0
   -1.6111  -23.6257   51.1278 O   0  0  0  1  0  0
   -0.3023  -25.0124   49.9660 N   0  0  0  1  0  0
    0.9287  -24.2651   50.3331 C   0  0  0  1  0  0
    1.8990  -25.1105   51.0374 N   0  0  0  1  0  0
    3.1746  -24.4626   50.7860 C   0  0  0  1  0  0
    3.0464  -23.8813   49.3871 C   0  0  0  1  0  0
    1.6142  -23.7479   49.1451 N   0  0  0  1  0  0
   -2.6432  -26.8050   50.8644 C   0  0  0  1  0  0
   -3.8896  -27.7100   50.7691 C   0  0  0  1  0  0
   -5.1113  -27.0151   51.2756 N   0  0  0  1  0  0
   -6.0130  -27.6193   52.1480 C   0  0  0  1  0  0
   -7.2716  -27.0245   52.3964 C   0  0  0  1  0  0
   -8.1857  -27.6196   53.2809 C   0  0  0  1  0  0
   -7.8602  -28.8219   53.9302 C   0  0  0  1  0  0
   -8.8403  -29.4551   54.8878 C   0  0  0  1  0  0
   -8.7419  -28.8738   56.2880 C   0  0  0  1  0  0
   -7.6508  -28.6172   56.7441 O   0  0  0  1  0  0
   -9.8625  -28.6576   56.9743 O   0  0  0  1  0  0
   -9.1952  -30.9269   54.7354 C   0  0  0  1  0  0
  -10.2128  -29.8703   54.3818 C   0  0  0  1  0  0
   -6.6156  -29.4273   53.6878 C   0  0  0  1  0  0
   -5.6980  -28.8303   52.8070 C   0  0  0  1  0  0
   -5.3079  -25.6184   50.7865 C   0  0  0  1  0  0
   -3.9999  -24.8118   50.9100 C   0  0  0  1  0  0
   -4.6203  -22.2517   46.4002 H   0  0
   -5.9284  -21.9330   47.5670 H   0  0
   -5.9581  -23.4069   46.5762 H   0  0
   -5.2682  -23.8976   48.8736 H   0  0
   -4.2271  -21.6976   49.4100 H   0  0
   -2.9190  -22.0164   48.2431 H   0  0
   -3.0609  -23.0025   49.7136 H   0  0
   -4.3458  -24.2924   45.6840 H   0  0
   -3.2007  -26.2538   44.7069 H   0  0
   -1.9239  -27.8007   46.1759 H   0  0
   -1.7790  -27.3651   48.5993 H   0  0
   -0.2299  -25.8658   49.3246 H   0  0
    0.5926  -23.4534   50.9784 H   0  0
    1.6892  -25.1179   52.0866 H   0  0
    3.9807  -25.1958   50.8121 H   0  0
    3.3381  -23.6628   51.5083 H   0  0
    3.5238  -22.9023   49.3463 H   0  0
    3.4851  -24.5632   48.6586 H   0  0
    1.3368  -24.3236   48.2869 H   0  0
   -1.7905  -27.3355   50.4407 H   0  0
   -2.4241  -26.6187   51.9158 H   0  0
   -4.0465  -27.9958   49.7290 H   0  0
   -3.7236  -28.6135   51.3558 H   0  0
   -7.5354  -26.0931   51.8954 H   0  0
   -9.1507  -27.1471   53.4641 H   0  0
  -10.3493  -29.5874   57.0057 H   0  0
   -9.4120  -31.3879   55.6990 H   0  0
   -8.7368  -31.3581   53.8455 H   0  0
  -10.2982  -29.7390   53.3031 H   0  0
  -10.9723  -29.7676   55.1569 H   0  0
   -6.3610  -30.3634   54.1848 H   0  0
   -4.7332  -29.3055   52.6298 H   0  0
   -6.0861  -25.1348   51.3769 H   0  0
   -5.6189  -25.6426   49.7421 H   0  0
   -4.1759  -23.7997   50.5456 H   0  0
   -3.7307  -24.7383   51.9637 H   0  0
  1  2  1  0
  2  3  1  0
  2  4  1  0
  4  5  2  0
  4  9  1  0
  5  6  1  0
  6  7  2  0
  7  8  1  0
  8  9  2  0
  9 10  1  0
 10 11  1  0
 10 19  1  0
 10 35  1  0
 11 12  2  0
 11 13  1  0
 13 14  1  0
 14 15  1  0
 14 18  1  0
 15 16  1  0
 16 17  1  0
 17 18  1  0
 19 20  1  0
 20 21  1  0
 21 22  1  0
 21 34  1  0
 22 23  2  0
 22 33  1  0
 23 24  1  0
 24 25  2  0
 25 26  1  0
 25 32  1  0
 26 27  1  0
 26 30  1  0
 26 31  1  0
 27 28  2  0
 27 29  1  0
 30 31  1  0
 32 33  2  0
 34 35  1  0
  1 36  1  0
  1 37  1  0
  1 38  1  0
  2 39  1  0
  3 40  1  0
  3 41  1  0
  3 42  1  0
  5 43  1  0
  6 44  1  0
  7 45  1  0
  8 46  1  0
 13 47  1  0
 14 48  1  0
 15 49  1  0
 16 50  1  0
 16 51  1  0
 17 52  1  0
 17 53  1  0
 18 54  1  0
 19 55  1  0
 19 56  1  0
 20 57  1  0
 20 58  1  0
 23 59  1  0
 24 60  1  0
 29 61  1  0
 30 62  1  0
 30 63  1  0
 31 64  1  0
 31 65  1  0
 32 66  1  0
 33 67  1  0
 34 68  1  0
 34 69  1  0
 35 70  1  0
 35 71  1  0
M  END
> <Name>
Molecule

> <AbsoluteEnergy>
59.3048

> <Clean Energy>
225.967

> <ConfNumber>
55

> <MOL_NUMBER>
5

> <RelativeEnergy>
11.0027

> <POSE_NUMBER>
40

> <LibDockScore>
121.0627

> <HotSpots>
-4.53,-24.52,46.19,A,17,5
-2.93,-26.32,45.98,A,15,7
3.07,-24.52,50.38,A,43,16

$$$$
Molecule
  SciTegic05072616053D

 71 75  0  0  0  0            999 V2000
    1.6253  -26.2584   47.5387 C   0  0  0  1  0  0
    0.6589  -25.0845   47.7970 C   0  0  0  1  0  0
    0.9542  -23.8963   46.8622 C   0  0  0  1  0  0
    0.6457  -24.6608   49.2499 C   0  0  0  1  0  0
    1.8883  -24.2673   49.7987 C   0  0  0  1  0  0
    1.9935  -23.8361   51.1243 C   0  0  0  1  0  0
    0.8515  -23.7774   51.9245 C   0  0  0  1  0  0
   -0.3906  -24.1566   51.4004 C   0  0  0  1  0  0
   -0.5320  -24.6270   50.0698 C   0  0  0  1  0  0
   -1.9152  -25.0609   49.5579 C   0  0  0  1  0  0
   -2.1437  -24.5431   48.1302 C   0  0  0  1  0  0
   -2.3773  -25.3151   47.2271 O   0  0  0  1  0  0
   -2.0954  -23.1900   47.8627 N   0  0  0  1  0  0
   -2.5257  -22.6544   46.5474 C   0  0  0  1  0  0
   -3.9810  -22.7083   46.3775 N   0  0  0  1  0  0
   -4.2437  -21.7054   45.3594 C   0  0  0  1  0  0
   -3.2049  -20.6196   45.6010 C   0  0  0  1  0  0
   -2.1557  -21.2465   46.3965 N   0  0  0  1  0  0
   -3.1309  -24.4587   50.3565 C   0  0  0  1  0  0
   -3.4385  -25.1030   51.7236 C   0  0  0  1  0  0
   -3.5553  -26.5680   51.5738 N   0  0  0  1  0  0
   -4.7181  -27.2585   51.8866 C   0  0  0  1  0  0
   -5.9251  -26.5461   52.0556 C   0  0  0  1  0  0
   -7.1083  -27.2161   52.3978 C   0  0  0  1  0  0
   -7.1066  -28.6106   52.5763 C   0  0  0  1  0  0
   -8.3820  -29.3125   52.9769 C   0  0  0  1  0  0
   -8.7194  -29.1067   54.4464 C   0  0  0  1  0  0
   -8.8210  -30.0651   55.1771 O   0  0  0  1  0  0
   -8.8936  -27.8615   54.8911 O   0  0  0  1  0  0
   -8.7819  -30.6121   52.2924 C   0  0  0  1  0  0
   -9.5374  -29.3411   51.9889 C   0  0  0  1  0  0
   -5.9138  -29.3335   52.3872 C   0  0  0  1  0  0
   -4.7259  -28.6631   52.0415 C   0  0  0  1  0  0
   -2.3441  -27.2112   51.0169 C   0  0  0  1  0  0
   -2.0588  -26.6257   49.6196 C   0  0  0  1  0  0
    2.6459  -25.9117   47.7008 H   0  0
    1.5191  -26.5754   46.5012 H   0  0
    1.4015  -27.0888   48.2084 H   0  0
   -0.3441  -25.4440   47.5670 H   0  0
    0.8532  -24.2315   45.8300 H   0  0
    1.9800  -23.5678   47.0295 H   0  0
    0.2623  -23.0773   47.0590 H   0  0
    2.7820  -24.3009   49.1755 H   0  0
    2.9626  -23.5471   51.5310 H   0  0
    0.9263  -23.4365   52.9571 H   0  0
   -1.2750  -24.0882   52.0339 H   0  0
   -1.7422  -22.5166   48.6155 H   0  0
   -2.0269  -23.2802   45.8073 H   0  0
   -4.2771  -23.6756   46.0288 H   0  0
   -5.2461  -21.2959   45.4847 H   0  0
   -4.1095  -22.1347   44.3665 H   0  0
   -3.6507  -19.7946   46.1567 H   0  0
   -2.7970  -20.2775   44.6499 H   0  0
   -1.2185  -21.1689   45.8862 H   0  0
   -2.9500  -23.3950   50.5110 H   0  0
   -4.0234  -24.5301   49.7348 H   0  0
   -2.6334  -24.8739   52.4217 H   0  0
   -4.3757  -24.7034   52.1111 H   0  0
   -5.9374  -25.4648   51.9187 H   0  0
   -8.0331  -26.6536   52.5259 H   0  0
   -9.6520  -27.4552   54.2892 H   0  0
   -9.3418  -31.2622   52.9646 H   0  0
   -8.0901  -30.8703   51.4907 H   0  0
   -9.2497  -28.9227   51.0244 H   0  0
  -10.5002  -29.3137   52.4991 H   0  0
   -5.9102  -30.4167   52.5090 H   0  0
   -3.8070  -29.2301   51.8924 H   0  0
   -2.5062  -28.2859   50.9344 H   0  0
   -1.4949  -27.0182   51.6723 H   0  0
   -1.1429  -27.0756   49.2365 H   0  0
   -2.8614  -26.9283   48.9470 H   0  0
  1  2  1  0
  2  3  1  0
  2  4  1  0
  4  5  2  0
  4  9  1  0
  5  6  1  0
  6  7  2  0
  7  8  1  0
  8  9  2  0
  9 10  1  0
 10 11  1  0
 10 19  1  0
 10 35  1  0
 11 12  2  0
 11 13  1  0
 13 14  1  0
 14 15  1  0
 14 18  1  0
 15 16  1  0
 16 17  1  0
 17 18  1  0
 19 20  1  0
 20 21  1  0
 21 22  1  0
 21 34  1  0
 22 23  2  0
 22 33  1  0
 23 24  1  0
 24 25  2  0
 25 26  1  0
 25 32  1  0
 26 27  1  0
 26 30  1  0
 26 31  1  0
 27 28  2  0
 27 29  1  0
 30 31  1  0
 32 33  2  0
 34 35  1  0
  1 36  1  0
  1 37  1  0
  1 38  1  0
  2 39  1  0
  3 40  1  0
  3 41  1  0
  3 42  1  0
  5 43  1  0
  6 44  1  0
  7 45  1  0
  8 46  1  0
 13 47  1  0
 14 48  1  0
 15 49  1  0
 16 50  1  0
 16 51  1  0
 17 52  1  0
 17 53  1  0
 18 54  1  0
 19 55  1  0
 19 56  1  0
 20 57  1  0
 20 58  1  0
 23 59  1  0
 24 60  1  0
 29 61  1  0
 30 62  1  0
 30 63  1  0
 31 64  1  0
 31 65  1  0
 32 66  1  0
 33 67  1  0
 34 68  1  0
 34 69  1  0
 35 70  1  0
 35 71  1  0
M  END
> <Name>
Molecule

> <AbsoluteEnergy>
52.6114

> <Clean Energy>
225.967

> <ConfNumber>
23

> <MOL_NUMBER>
5

> <RelativeEnergy>
4.30926

> <POSE_NUMBER>
41

> <LibDockScore>
120.8941

> <HotSpots>
0.27,-24.92,46.38,A,19,3
-4.93,-21.52,45.19,A,11,16
-6.33,-26.32,51.98,A,57,23

$$$$
Molecule
  SciTegic05072616053D

 71 75  0  0  0  0            999 V2000
   -5.4684  -22.1137   46.0601 C   0  0  0  1  0  0
   -4.6733  -23.2132   46.7897 C   0  0  0  1  0  0
   -4.6853  -24.5396   46.0056 C   0  0  0  1  0  0
   -3.2674  -22.7734   47.1286 C   0  0  0  1  0  0
   -2.5650  -22.0872   46.1130 C   0  0  0  1  0  0
   -1.2615  -21.6227   46.3169 C   0  0  0  1  0  0
   -0.6352  -21.8367   47.5460 C   0  0  0  1  0  0
   -1.3096  -22.5203   48.5668 C   0  0  0  1  0  0
   -2.6279  -23.0126   48.3893 C   0  0  0  1  0  0
   -3.3102  -23.7752   49.5331 C   0  0  0  1  0  0
   -3.3360  -25.2833   49.2304 C   0  0  0  1  0  0
   -4.3888  -25.8784   49.1641 O   0  0  0  1  0  0
   -2.1597  -25.9785   49.0320 N   0  0  0  1  0  0
   -2.1596  -27.4544   48.8348 C   0  0  0  1  0  0
   -0.8086  -28.0291   48.7848 N   0  0  0  1  0  0
   -0.9265  -29.3893   49.3030 C   0  0  0  1  0  0
   -2.3234  -29.5069   49.8946 C   0  0  0  1  0  0
   -2.8414  -28.1508   49.9227 N   0  0  0  1  0  0
   -4.7493  -23.1832   49.7729 C   0  0  0  1  0  0
   -5.2930  -23.3255   51.2157 C   0  0  0  1  0  0
   -4.7211  -24.5416   51.8550 N   0  0  0  1  0  0
   -5.4781  -25.6862   52.1185 C   0  0  0  1  0  0
   -6.8254  -25.7905   51.6963 C   0  0  0  1  0  0
   -7.5254  -27.0034   51.8130 C   0  0  0  1  0  0
   -6.8942  -28.1266   52.3719 C   0  0  0  1  0  0
   -7.5746  -29.4726   52.3770 C   0  0  0  1  0  0
   -6.6263  -30.5633   51.8820 C   0  0  0  1  0  0
   -5.5899  -30.7398   52.4809 O   0  0  0  1  0  0
   -6.9266  -31.2893   50.8059 O   0  0  0  1  0  0
   -8.5177  -29.8184   53.5193 C   0  0  0  1  0  0
   -9.0751  -29.5650   52.1399 C   0  0  0  1  0  0
   -5.6026  -28.0030   52.9061 C   0  0  0  1  0  0
   -4.9055  -26.7947   52.7855 C   0  0  0  1  0  0
   -3.2440  -24.4392   52.0631 C   0  0  0  1  0  0
   -2.5801  -23.6335   50.9170 C   0  0  0  1  0  0
   -6.4962  -22.4544   45.9351 H   0  0
   -5.0247  -21.9601   45.0764 H   0  0
   -5.4474  -21.1852   46.6307 H   0  0
   -5.1810  -23.3930   47.7374 H   0  0
   -4.2485  -24.3648   45.0224 H   0  0
   -5.7199  -24.8591   45.8810 H   0  0
   -4.1181  -25.3029   46.5382 H   0  0
   -3.0485  -21.9163   45.1512 H   0  0
   -0.7371  -21.0960   45.5196 H   0  0
    0.3785  -21.4721   47.7118 H   0  0
   -0.8081  -22.6777   49.5217 H   0  0
   -1.2312  -25.4469   49.0197 H   0  0
   -2.6711  -27.5935   47.8824 H   0  0
   -0.4601  -28.0537   47.7734 H   0  0
   -0.8075  -30.1072   48.4915 H   0  0
   -0.1811  -29.5573   50.0804 H   0  0
   -2.2676  -29.9065   50.9072 H   0  0
   -2.9471  -30.1320   49.2555 H   0  0
   -3.8972  -28.1588   49.7490 H   0  0
   -4.7393  -22.1257   49.5089 H   0  0
   -5.4457  -23.6707   49.0906 H   0  0
   -5.0140  -22.4464   51.7966 H   0  0
   -6.3795  -23.4086   51.1881 H   0  0
   -7.3262  -24.9187   51.2753 H   0  0
   -8.5577  -27.0724   51.4699 H   0  0
   -7.0833  -30.5784   50.0492 H   0  0
   -8.6755  -28.9659   54.1799 H   0  0
   -8.4891  -30.8828   53.7526 H   0  0
   -9.3441  -30.4942   51.6377 H   0  0
   -9.5290  -28.5769   52.0644 H   0  0
   -5.1412  -28.8489   53.4157 H   0  0
   -3.9063  -26.7068   53.2121 H   0  0
   -3.0481  -23.9415   53.0128 H   0  0
   -2.8139  -25.4402   52.0946 H   0  0
   -1.5480  -23.9660   50.8064 H   0  0
   -2.5555  -22.5804   51.1972 H   0  0
  1  2  1  0
  2  3  1  0
  2  4  1  0
  4  5  2  0
  4  9  1  0
  5  6  1  0
  6  7  2  0
  7  8  1  0
  8  9  2  0
  9 10  1  0
 10 11  1  0
 10 19  1  0
 10 35  1  0
 11 12  2  0
 11 13  1  0
 13 14  1  0
 14 15  1  0
 14 18  1  0
 15 16  1  0
 16 17  1  0
 17 18  1  0
 19 20  1  0
 20 21  1  0
 21 22  1  0
 21 34  1  0
 22 23  2  0
 22 33  1  0
 23 24  1  0
 24 25  2  0
 25 26  1  0
 25 32  1  0
 26 27  1  0
 26 30  1  0
 26 31  1  0
 27 28  2  0
 27 29  1  0
 30 31  1  0
 32 33  2  0
 34 35  1  0
  1 36  1  0
  1 37  1  0
  1 38  1  0
  2 39  1  0
  3 40  1  0
  3 41  1  0
  3 42  1  0
  5 43  1  0
  6 44  1  0
  7 45  1  0
  8 46  1  0
 13 47  1  0
 14 48  1  0
 15 49  1  0
 16 50  1  0
 16 51  1  0
 17 52  1  0
 17 53  1  0
 18 54  1  0
 19 55  1  0
 19 56  1  0
 20 57  1  0
 20 58  1  0
 23 59  1  0
 24 60  1  0
 29 61  1  0
 30 62  1  0
 30 63  1  0
 31 64  1  0
 31 65  1  0
 32 66  1  0
 33 67  1  0
 34 68  1  0
 34 69  1  0
 35 70  1  0
 35 71  1  0
M  END
> <Name>
Molecule

> <AbsoluteEnergy>
57.6751

> <Clean Energy>
225.967

> <ConfNumber>
40

> <MOL_NUMBER>
5

> <RelativeEnergy>
9.37294

> <POSE_NUMBER>
42

> <LibDockScore>
120.3975

> <HotSpots>
-2.93,-26.32,45.98,A,15,3
-0.73,-30.12,49.98,A,38,16
-9.53,-30.12,52.78,A,62,31

$$$$
Molecule
  SciTegic05072616053D

 71 75  0  0  0  0            999 V2000
   -0.5611  -23.9317   46.8642 C   0  0  0  1  0  0
   -1.6389  -24.8502   47.4731 C   0  0  0  1  0  0
   -1.8888  -26.0843   46.5865 C   0  0  0  1  0  0
   -2.9199  -24.1023   47.7729 C   0  0  0  1  0  0
   -3.6037  -23.5461   46.6692 C   0  0  0  1  0  0
   -4.7820  -22.8120   46.8399 C   0  0  0  1  0  0
   -5.2974  -22.6198   48.1232 C   0  0  0  1  0  0
   -4.6399  -23.1692   49.2315 C   0  0  0  1  0  0
   -3.4536  -23.9351   49.0934 C   0  0  0  1  0  0
   -2.7764  -24.5520   50.3291 C   0  0  0  1  0  0
   -1.3449  -24.0042   50.4658 C   0  0  0  1  0  0
   -0.9483  -23.1196   49.7384 O   0  0  0  1  0  0
   -0.4864  -24.5191   51.4146 N   0  0  0  1  0  0
    0.9277  -24.0811   51.4833 C   0  0  0  1  0  0
    1.6704  -24.5687   50.3236 N   0  0  0  1  0  0
    3.0391  -24.7073   50.7817 C   0  0  0  1  0  0
    2.9041  -25.1191   52.2368 C   0  0  0  1  0  0
    1.5950  -24.6381   52.6642 N   0  0  0  1  0  0
   -2.8058  -26.1234   50.1994 C   0  0  0  1  0  0
   -3.2962  -26.8664   51.4533 C   0  0  0  1  0  0
   -4.6604  -26.3907   51.8215 N   0  0  0  1  0  0
   -5.7668  -27.2360   51.9629 C   0  0  0  1  0  0
   -5.6647  -28.6378   51.7869 C   0  0  0  1  0  0
   -6.7852  -29.4706   51.9429 C   0  0  0  1  0  0
   -8.0365  -28.9222   52.2687 C   0  0  0  1  0  0
   -9.2410  -29.8177   52.4331 C   0  0  0  1  0  0
   -9.8860  -30.1855   51.1051 C   0  0  0  1  0  0
  -10.9006  -29.6200   50.7684 O   0  0  0  1  0  0
   -9.3262  -31.1196   50.3376 O   0  0  0  1  0  0
  -10.1403  -29.6405   53.6467 C   0  0  0  1  0  0
   -9.2515  -30.8557   53.5454 C   0  0  0  1  0  0
   -8.1593  -27.5332   52.4357 C   0  0  0  1  0  0
   -7.0382  -26.7007   52.2843 C   0  0  0  1  0  0
   -4.7774  -24.9156   52.0139 C   0  0  0  1  0  0
   -3.4623  -24.1672   51.6905 C   0  0  0  1  0  0
   -0.8931  -23.6102   45.8770 H   0  0
    0.3636  -24.4993   46.7604 H   0  0
   -0.3971  -23.0645   47.5038 H   0  0
   -1.2559  -25.2074   48.4291 H   0  0
   -0.9545  -26.6363   46.4847 H   0  0
   -2.2112  -25.7472   45.6013 H   0  0
   -2.6527  -26.7219   47.0315 H   0  0
   -3.2055  -23.6918   45.6651 H   0  0
   -5.2955  -22.3919   45.9751 H   0  0
   -6.2113  -22.0423   48.2627 H   0  0
   -5.0510  -23.0037   50.2273 H   0  0
   -0.8470  -25.2461   52.1119 H   0  0
    0.9177  -22.9918   51.5209 H   0  0
    1.6209  -23.8545   49.5284 H   0  0
    3.5480  -25.4890   50.2176 H   0  0
    3.5599  -23.7524   50.7104 H   0  0
    3.6863  -24.6474   52.8315 H   0  0
    2.9476  -26.2050   52.3212 H   0  0
    1.0211  -25.4521   53.0551 H   0  0
   -1.8026  -26.4743   49.9574 H   0  0
   -3.4485  -26.3934   49.3614 H   0  0
   -2.6115  -26.6761   52.2798 H   0  0
   -3.3286  -27.9370   51.2510 H   0  0
   -4.7018  -29.0771   51.5264 H   0  0
   -6.6830  -30.5477   51.8104 H   0  0
   -9.2611  -31.9685   50.9522 H   0  0
  -11.1779  -29.8804   53.4143 H   0  0
   -9.7357  -28.9025   54.3394 H   0  0
   -8.3730  -30.7661   54.1844 H   0  0
   -9.8147  -31.7435   53.2578 H   0  0
   -9.1281  -27.0996   52.6837 H   0  0
   -7.1485  -25.6244   52.4164 H   0  0
   -5.0562  -24.7127   53.0479 H   0  0
   -5.5701  -24.5355   51.3694 H   0  0
   -3.6660  -23.0964   51.6875 H   0  0
   -2.7542  -24.3473   52.4993 H   0  0
  1  2  1  0
  2  3  1  0
  2  4  1  0
  4  5  2  0
  4  9  1  0
  5  6  1  0
  6  7  2  0
  7  8  1  0
  8  9  2  0
  9 10  1  0
 10 11  1  0
 10 19  1  0
 10 35  1  0
 11 12  2  0
 11 13  1  0
 13 14  1  0
 14 15  1  0
 14 18  1  0
 15 16  1  0
 16 17  1  0
 17 18  1  0
 19 20  1  0
 20 21  1  0
 21 22  1  0
 21 34  1  0
 22 23  2  0
 22 33  1  0
 23 24  1  0
 24 25  2  0
 25 26  1  0
 25 32  1  0
 26 27  1  0
 26 30  1  0
 26 31  1  0
 27 28  2  0
 27 29  1  0
 30 31  1  0
 32 33  2  0
 34 35  1  0
  1 36  1  0
  1 37  1  0
  1 38  1  0
  2 39  1  0
  3 40  1  0
  3 41  1  0
  3 42  1  0
  5 43  1  0
  6 44  1  0
  7 45  1  0
  8 46  1  0
 13 47  1  0
 14 48  1  0
 15 49  1  0
 16 50  1  0
 16 51  1  0
 17 52  1  0
 17 53  1  0
 18 54  1  0
 19 55  1  0
 19 56  1  0
 20 57  1  0
 20 58  1  0
 23 59  1  0
 24 60  1  0
 29 61  1  0
 30 62  1  0
 30 63  1  0
 31 64  1  0
 31 65  1  0
 32 66  1  0
 33 67  1  0
 34 68  1  0
 34 69  1  0
 35 70  1  0
 35 71  1  0
M  END
> <Name>
Molecule

> <AbsoluteEnergy>
52.9295

> <Clean Energy>
225.967

> <ConfNumber>
26

> <MOL_NUMBER>
5

> <RelativeEnergy>
4.62733

> <POSE_NUMBER>
43

> <LibDockScore>
120.3473

> <HotSpots>
-0.93,-23.32,46.98,A,25,1
3.07,-24.52,50.38,A,43,16
-7.93,-28.32,52.38,A,59,32

$$$$
Molecule
  SciTegic05072616053D

 71 75  0  0  0  0            999 V2000
   -1.9704  -24.1028   49.6748 C   0  0  0  1  0  0
   -3.1577  -25.0158   50.0514 C   0  0  0  1  0  0
   -4.4576  -24.5444   49.3701 C   0  0  0  1  0  0
   -2.8904  -26.4790   49.7726 C   0  0  0  1  0  0
   -2.6452  -26.8334   48.4263 C   0  0  0  1  0  0
   -2.3257  -28.1429   48.0642 C   0  0  0  1  0  0
   -2.2460  -29.1322   49.0431 C   0  0  0  1  0  0
   -2.5047  -28.8094   50.3810 C   0  0  0  1  0  0
   -2.8673  -27.4956   50.7838 C   0  0  0  1  0  0
   -3.1819  -27.2123   52.2660 C   0  0  0  1  0  0
   -2.1616  -26.2139   52.8239 C   0  0  0  1  0  0
   -2.5369  -25.1590   53.2857 O   0  0  0  1  0  0
   -0.8101  -26.4958   52.7921 N   0  0  0  1  0  0
    0.1836  -25.5402   53.3366 C   0  0  0  1  0  0
    1.5314  -26.1193   53.2854 N   0  0  0  1  0  0
    2.1977  -25.4881   52.1559 C   0  0  0  1  0  0
    1.5573  -24.1196   52.0597 C   0  0  0  1  0  0
    0.1894  -24.3345   52.4975 N   0  0  0  1  0  0
   -4.6330  -26.6715   52.4786 C   0  0  0  1  0  0
   -5.7210  -27.6758   52.0885 C   0  0  0  1  0  0
   -5.5963  -28.9131   52.8980 N   0  0  0  1  0  0
   -6.6750  -29.4651   53.5703 C   0  0  0  1  0  0
   -6.4867  -30.5755   54.4197 C   0  0  0  1  0  0
   -7.5715  -31.1275   55.1187 C   0  0  0  1  0  0
   -8.8564  -30.5763   54.9831 C   0  0  0  1  0  0
  -10.0164  -31.1640   55.7501 C   0  0  0  1  0  0
  -11.1474  -31.6111   54.8406 C   0  0  0  1  0  0
  -11.8227  -30.7739   54.2861 O   0  0  0  1  0  0
  -11.3630  -32.9138   54.6725 O   0  0  0  1  0  0
  -10.3569  -30.6172   57.1295 C   0  0  0  1  0  0
   -9.7344  -31.9855   56.9977 C   0  0  0  1  0  0
   -9.0548  -29.4775   54.1278 C   0  0  0  1  0  0
   -7.9723  -28.9268   53.4226 C   0  0  0  1  0  0
   -4.2438  -29.5297   52.9491 C   0  0  0  1  0  0
   -3.1311  -28.4767   53.1883 C   0  0  0  1  0  0
   -2.1974  -23.0839   49.9886 H   0  0
   -1.8421  -24.1218   48.5925 H   0  0
   -1.0595  -24.4484   50.1636 H   0  0
   -3.2844  -24.9291   51.1305 H   0  0
   -4.3138  -24.5606   48.2897 H   0  0
   -4.6691  -23.5228   49.6858 H   0  0
   -5.2856  -25.1977   49.6451 H   0  0
   -2.7070  -26.0669   47.6538 H   0  0
   -2.1391  -28.3912   47.0194 H   0  0
   -1.9832  -30.1537   48.7680 H   0  0
   -2.4255  -29.5904   51.1372 H   0  0
   -0.4748  -27.4190   52.3675 H   0  0
   -0.0831  -25.3088   54.3678 H   0  0
    1.4697  -27.1758   53.1279 H   0  0
    3.2645  -25.3882   52.3561 H   0  0
    2.0098  -26.0534   51.2431 H   0  0
    1.5710  -23.7704   51.0273 H   0  0
    2.0612  -23.4224   52.7291 H   0  0
   -0.1435  -23.4932   53.0688 H   0  0
   -4.7634  -25.7646   51.8882 H   0  0
   -4.7605  -26.4041   53.5276 H   0  0
   -5.6220  -27.9251   51.0320 H   0  0
   -6.7013  -27.2309   52.2590 H   0  0
   -5.4925  -31.0075   54.5339 H   0  0
   -7.4162  -31.9878   55.7697 H   0  0
  -11.5095  -33.2942   55.6401 H   0  0
  -11.4262  -30.6793   57.3314 H   0  0
   -9.6294  -29.8736   57.4548 H   0  0
   -8.6753  -31.9721   57.2549 H   0  0
  -10.4716  -32.7775   57.1298 H   0  0
  -10.0517  -29.0521   54.0119 H   0  0
   -8.1344  -28.0788   52.7572 H   0  0
   -4.2177  -30.2649   53.7534 H   0  0
   -4.0504  -30.0450   52.0082 H   0  0
   -2.1632  -28.9613   53.0598 H   0  0
   -3.1808  -28.1516   54.2275 H   0  0
  1  2  1  0
  2  3  1  0
  2  4  1  0
  4  5  2  0
  4  9  1  0
  5  6  1  0
  6  7  2  0
  7  8  1  0
  8  9  2  0
  9 10  1  0
 10 11  1  0
 10 19  1  0
 10 35  1  0
 11 12  2  0
 11 13  1  0
 13 14  1  0
 14 15  1  0
 14 18  1  0
 15 16  1  0
 16 17  1  0
 17 18  1  0
 19 20  1  0
 20 21  1  0
 21 22  1  0
 21 34  1  0
 22 23  2  0
 22 33  1  0
 23 24  1  0
 24 25  2  0
 25 26  1  0
 25 32  1  0
 26 27  1  0
 26 30  1  0
 26 31  1  0
 27 28  2  0
 27 29  1  0
 30 31  1  0
 32 33  2  0
 34 35  1  0
  1 36  1  0
  1 37  1  0
  1 38  1  0
  2 39  1  0
  3 40  1  0
  3 41  1  0
  3 42  1  0
  5 43  1  0
  6 44  1  0
  7 45  1  0
  8 46  1  0
 13 47  1  0
 14 48  1  0
 15 49  1  0
 16 50  1  0
 16 51  1  0
 17 52  1  0
 17 53  1  0
 18 54  1  0
 19 55  1  0
 19 56  1  0
 20 57  1  0
 20 58  1  0
 23 59  1  0
 24 60  1  0
 29 61  1  0
 30 62  1  0
 30 63  1  0
 31 64  1  0
 31 65  1  0
 32 66  1  0
 33 67  1  0
 34 68  1  0
 34 69  1  0
 35 70  1  0
 35 71  1  0
M  END
> <Name>
Molecule

> <AbsoluteEnergy>
51.1783

> <Clean Energy>
225.967

> <ConfNumber>
12

> <MOL_NUMBER>
5

> <RelativeEnergy>
2.87619

> <POSE_NUMBER>
44

> <LibDockScore>
119.8693

> <HotSpots>
-5.33,-24.12,49.78,A,36,3
0.87,-24.32,52.78,A,63,17
-11.53,-32.52,54.78,A,71,31

$$$$
Molecule
  SciTegic05072616053D

 71 75  0  0  0  0            999 V2000
   -1.3731  -26.1779   48.4683 C   0  0  0  1  0  0
   -1.0711  -24.8493   49.1890 C   0  0  0  1  0  0
   -2.2397  -23.8541   49.1594 C   0  0  0  1  0  0
   -0.2857  -24.9977   50.4908 C   0  0  0  1  0  0
    1.0564  -24.5496   50.3972 C   0  0  0  1  0  0
    1.9299  -24.5791   51.4856 C   0  0  0  1  0  0
    1.4822  -25.0643   52.7111 C   0  0  0  1  0  0
    0.1686  -25.5264   52.8384 C   0  0  0  1  0  0
   -0.7515  -25.5287   51.7523 C   0  0  0  1  0  0
   -2.1663  -26.0933   52.0052 C   0  0  0  1  0  0
   -3.2010  -24.9601   51.9023 C   0  0  0  1  0  0
   -2.9098  -23.8479   52.2853 O   0  0  0  1  0  0
   -4.4618  -25.1688   51.3804 N   0  0  0  1  0  0
   -5.4786  -24.0913   51.3606 C   0  0  0  1  0  0
   -5.0697  -23.0118   50.4593 N   0  0  0  1  0  0
   -6.2383  -22.6331   49.6734 C   0  0  0  1  0  0
   -7.3923  -23.4446   50.2349 C   0  0  0  1  0  0
   -6.7540  -24.5908   50.8512 N   0  0  0  1  0  0
   -2.4077  -27.3319   51.0651 C   0  0  0  1  0  0
   -3.0077  -28.5925   51.7269 C   0  0  0  1  0  0
   -4.1105  -28.2418   52.6602 N   0  0  0  1  0  0
   -5.4213  -28.7018   52.5220 C   0  0  0  1  0  0
   -6.5034  -27.9297   53.0063 C   0  0  0  1  0  0
   -7.8278  -28.3741   52.8658 C   0  0  0  1  0  0
   -8.0991  -29.6031   52.2410 C   0  0  0  1  0  0
   -9.5271  -30.0813   52.0839 C   0  0  0  1  0  0
  -10.0474  -30.0267   50.6419 C   0  0  0  1  0  0
   -9.3284  -30.3652   49.7294 O   0  0  0  1  0  0
  -11.2888  -29.6073   50.3902 O   0  0  0  1  0  0
  -10.5028  -29.8065   53.2197 C   0  0  0  1  0  0
  -10.0006  -31.2109   52.9872 C   0  0  0  1  0  0
   -7.0349  -30.3827   51.7572 C   0  0  0  1  0  0
   -5.7107  -29.9354   51.8919 C   0  0  0  1  0  0
   -3.7170  -27.3178   53.7581 C   0  0  0  1  0  0
   -2.3664  -26.6219   53.4744 C   0  0  0  1  0  0
   -1.6284  -25.9429   47.4350 H   0  0
   -2.2456  -26.6227   48.9468 H   0  0
   -0.5206  -26.8557   48.5116 H   0  0
   -0.3316  -24.3303   48.5791 H   0  0
   -3.0977  -24.3378   49.6263 H   0  0
   -2.4805  -23.6581   48.1146 H   0  0
   -1.9873  -22.9294   49.6783 H   0  0
    1.4185  -24.1689   49.4422 H   0  0
    2.9550  -24.2248   51.3767 H   0  0
    2.1539  -25.0840   53.5693 H   0  0
   -0.1638  -25.8994   53.8072 H   0  0
   -4.7103  -26.1300   50.9813 H   0  0
   -5.5786  -23.7335   52.3853 H   0  0
   -4.2936  -23.3570   49.8087 H   0  0
   -6.4400  -21.5687   49.7940 H   0  0
   -6.0822  -22.8869   48.6249 H   0  0
   -8.0503  -23.7690   49.4288 H   0  0
   -7.9282  -22.8637   50.9855 H   0  0
   -7.3550  -24.9546   51.6583 H   0  0
   -1.4593  -27.6057   50.6029 H   0  0
   -3.0656  -27.0250   50.2520 H   0  0
   -2.2264  -29.1164   52.2776 H   0  0
   -3.3922  -29.2561   50.9524 H   0  0
   -6.3060  -26.9759   53.4956 H   0  0
   -8.6484  -27.7636   53.2427 H   0  0
  -11.3373  -28.6534   50.8264 H   0  0
  -11.5201  -29.6766   52.8504 H   0  0
  -10.0056  -29.3365   54.0682 H   0  0
   -9.2364  -31.4901   53.7125 H   0  0
  -10.7498  -31.8297   52.4934 H   0  0
   -7.2382  -31.3390   51.2752 H   0  0
   -4.8948  -30.5465   51.5060 H   0  0
   -3.6395  -27.8806   54.6883 H   0  0
   -4.4903  -26.5594   53.8800 H   0  0
   -2.2579  -25.7845   54.1637 H   0  0
   -1.5624  -27.3209   53.7046 H   0  0
  1  2  1  0
  2  3  1  0
  2  4  1  0
  4  5  2  0
  4  9  1  0
  5  6  1  0
  6  7  2  0
  7  8  1  0
  8  9  2  0
  9 10  1  0
 10 11  1  0
 10 19  1  0
 10 35  1  0
 11 12  2  0
 11 13  1  0
 13 14  1  0
 14 15  1  0
 14 18  1  0
 15 16  1  0
 16 17  1  0
 17 18  1  0
 19 20  1  0
 20 21  1  0
 21 22  1  0
 21 34  1  0
 22 23  2  0
 22 33  1  0
 23 24  1  0
 24 25  2  0
 25 26  1  0
 25 32  1  0
 26 27  1  0
 26 30  1  0
 26 31  1  0
 27 28  2  0
 27 29  1  0
 30 31  1  0
 32 33  2  0
 34 35  1  0
  1 36  1  0
  1 37  1  0
  1 38  1  0
  2 39  1  0
  3 40  1  0
  3 41  1  0
  3 42  1  0
  5 43  1  0
  6 44  1  0
  7 45  1  0
  8 46  1  0
 13 47  1  0
 14 48  1  0
 15 49  1  0
 16 50  1  0
 16 51  1  0
 17 52  1  0
 17 53  1  0
 18 54  1  0
 19 55  1  0
 19 56  1  0
 20 57  1  0
 20 58  1  0
 23 59  1  0
 24 60  1  0
 29 61  1  0
 30 62  1  0
 30 63  1  0
 31 64  1  0
 31 65  1  0
 32 66  1  0
 33 67  1  0
 34 68  1  0
 34 69  1  0
 35 70  1  0
 35 71  1  0
M  END
> <Name>
Molecule

> <AbsoluteEnergy>
65.0351

> <Clean Energy>
225.967

> <ConfNumber>
89

> <MOL_NUMBER>
5

> <RelativeEnergy>
16.733

> <POSE_NUMBER>
45

> <LibDockScore>
119.8078

> <HotSpots>
1.67,-24.32,50.98,A,50,6
-7.33,-24.12,50.38,A,44,16
-6.53,-30.72,51.78,A,56,32

$$$$
Molecule
  SciTegic05072616053D

 71 75  0  0  0  0            999 V2000
    0.3745  -25.6889   46.8509 C   0  0  0  1  0  0
    0.0792  -24.5095   47.7990 C   0  0  0  1  0  0
    0.2474  -23.1600   47.0732 C   0  0  0  1  0  0
    0.9105  -24.5791   49.0631 C   0  0  0  1  0  0
    2.3136  -24.5849   48.8933 C   0  0  0  1  0  0
    3.1789  -24.5881   49.9921 C   0  0  0  1  0  0
    2.6530  -24.5758   51.2855 C   0  0  0  1  0  0
    1.2651  -24.5831   51.4771 C   0  0  0  1  0  0
    0.3580  -24.6268   50.3874 C   0  0  0  1  0  0
   -1.1570  -24.7069   50.6476 C   0  0  0  1  0  0
   -1.8415  -23.4542   50.0701 C   0  0  0  1  0  0
   -1.1847  -22.5815   49.5443 O   0  0  0  1  0  0
   -3.2101  -23.2975   50.1282 N   0  0  0  1  0  0
   -3.8813  -22.1384   49.4669 C   0  0  0  1  0  0
   -5.3370  -22.1755   49.6340 N   0  0  0  1  0  0
   -5.8740  -22.9668   48.5327 C   0  0  0  1  0  0
   -4.7828  -22.9765   47.4681 C   0  0  0  1  0  0
   -3.7010  -22.1649   48.0119 N   0  0  0  1  0  0
   -1.5554  -24.7224   52.1666 C   0  0  0  1  0  0
   -1.2379  -26.0134   52.9658 C   0  0  0  1  0  0
   -1.6681  -27.2362   52.2355 N   0  0  0  1  0  0
   -2.4163  -28.2451   52.8396 C   0  0  0  1  0  0
   -3.2579  -29.0852   52.0742 C   0  0  0  1  0  0
   -4.0070  -30.1035   52.6868 C   0  0  0  1  0  0
   -3.9340  -30.2978   54.0767 C   0  0  0  1  0  0
   -4.7446  -31.3900   54.7322 C   0  0  0  1  0  0
   -6.1465  -30.9389   55.1074 C   0  0  0  1  0  0
   -7.0532  -31.1271   54.3283 O   0  0  0  1  0  0
   -6.3399  -30.3472   56.2854 O   0  0  0  1  0  0
   -4.0501  -32.3941   55.6403 C   0  0  0  1  0  0
   -4.5491  -32.8303   54.2843 C   0  0  0  1  0  0
   -3.1055  -29.4663   54.8500 C   0  0  0  1  0  0
   -2.3518  -28.4513   54.2370 C   0  0  0  1  0  0
   -1.2376  -27.2917   50.8133 C   0  0  0  1  0  0
   -1.7275  -26.0454   50.0631 C   0  0  0  1  0  0
    1.3968  -25.5975   46.4840 H   0  0
   -0.3127  -25.6414   46.0061 H   0  0
    0.2516  -26.6353   47.3775 H   0  0
   -0.9633  -24.5887   48.1072 H   0  0
   -0.4390  -23.1279   46.2271 H   0  0
    1.2705  -23.0840   46.7049 H   0  0
    0.0356  -22.3366   47.7552 H   0  0
    2.7297  -24.5869   47.8858 H   0  0
    4.2581  -24.6001   49.8396 H   0  0
    3.3220  -24.5605   52.1459 H   0  0
    0.8710  -24.5544   52.4929 H   0  0
   -3.8007  -24.0175   50.6552 H   0  0
   -3.4311  -21.2619   49.9328 H   0  0
   -5.5832  -22.6389   50.5665 H   0  0
   -6.0754  -23.9845   48.8672 H   0  0
   -6.7741  -22.4961   48.1372 H   0  0
   -5.1568  -22.5302   46.5467 H   0  0
   -4.4361  -23.9961   47.3002 H   0  0
   -2.7580  -22.6088   47.7699 H   0  0
   -1.0614  -23.8852   52.6596 H   0  0
   -2.6250  -24.5273   52.2440 H   0  0
   -0.1646  -26.0665   53.1483 H   0  0
   -1.7491  -25.9748   53.9277 H   0  0
   -3.3261  -28.9409   50.9960 H   0  0
   -4.6473  -30.7454   52.0818 H   0  0
   -5.6858  -29.5258   56.2902 H   0  0
   -4.7091  -32.7331   56.4397 H   0  0
   -2.9698  -32.2487   55.6440 H   0  0
   -3.7347  -32.9187   53.5653 H   0  0
   -5.4743  -33.4015   54.3606 H   0  0
   -3.0476  -29.6094   55.9290 H   0  0
   -1.7096  -27.8151   54.8460 H   0  0
   -1.6535  -28.1828   50.3431 H   0  0
   -0.1496  -27.3371   50.7663 H   0  0
   -1.4372  -26.1277   49.0157 H   0  0
   -2.8163  -26.0142   50.1044 H   0  0
  1  2  1  0
  2  3  1  0
  2  4  1  0
  4  5  2  0
  4  9  1  0
  5  6  1  0
  6  7  2  0
  7  8  1  0
  8  9  2  0
  9 10  1  0
 10 11  1  0
 10 19  1  0
 10 35  1  0
 11 12  2  0
 11 13  1  0
 13 14  1  0
 14 15  1  0
 14 18  1  0
 15 16  1  0
 16 17  1  0
 17 18  1  0
 19 20  1  0
 20 21  1  0
 21 22  1  0
 21 34  1  0
 22 23  2  0
 22 33  1  0
 23 24  1  0
 24 25  2  0
 25 26  1  0
 25 32  1  0
 26 27  1  0
 26 30  1  0
 26 31  1  0
 27 28  2  0
 27 29  1  0
 30 31  1  0
 32 33  2  0
 34 35  1  0
  1 36  1  0
  1 37  1  0
  1 38  1  0
  2 39  1  0
  3 40  1  0
  3 41  1  0
  3 42  1  0
  5 43  1  0
  6 44  1  0
  7 45  1  0
  8 46  1  0
 13 47  1  0
 14 48  1  0
 15 49  1  0
 16 50  1  0
 16 51  1  0
 17 52  1  0
 17 53  1  0
 18 54  1  0
 19 55  1  0
 19 56  1  0
 20 57  1  0
 20 58  1  0
 23 59  1  0
 24 60  1  0
 29 61  1  0
 30 62  1  0
 30 63  1  0
 31 64  1  0
 31 65  1  0
 32 66  1  0
 33 67  1  0
 34 68  1  0
 34 69  1  0
 35 70  1  0
 35 71  1  0
M  END
> <Name>
Molecule

> <AbsoluteEnergy>
53.2742

> <Clean Energy>
225.967

> <ConfNumber>
28

> <MOL_NUMBER>
5

> <RelativeEnergy>
4.97203

> <POSE_NUMBER>
46

> <LibDockScore>
119.7951

> <HotSpots>
1.27,-23.52,47.59,A,27,3
-4.93,-23.52,47.59,A,26,16
-4.33,-32.92,55.19,A,75,30

$$$$
Molecule
  SciTegic05072616053D

 71 75  0  0  0  0            999 V2000
   -0.8596  -26.0785   53.1248 C   0  0  0  1  0  0
    0.0317  -24.8360   52.8900 C   0  0  0  1  0  0
   -0.3256  -23.5543   53.6744 C   0  0  0  1  0  0
    0.5269  -24.5778   51.4709 C   0  0  0  1  0  0
    1.9408  -24.5034   51.3766 C   0  0  0  1  0  0
    2.6014  -24.3305   50.1596 C   0  0  0  1  0  0
    1.8593  -24.2298   48.9875 C   0  0  0  1  0  0
    0.4635  -24.2771   49.0440 C   0  0  0  1  0  0
   -0.2581  -24.4115   50.2644 C   0  0  0  1  0  0
   -1.7989  -24.3796   50.1461 C   0  0  0  1  0  0
   -2.2803  -23.1465   49.3378 C   0  0  0  1  0  0
   -2.3213  -22.0618   49.8770 O   0  0  0  1  0  0
   -2.6798  -23.2288   48.0169 N   0  0  0  1  0  0
   -3.5100  -22.1655   47.4019 C   0  0  0  1  0  0
   -2.7889  -21.4992   46.3181 N   0  0  0  1  0  0
   -3.8050  -21.1146   45.3582 C   0  0  0  1  0  0
   -4.8346  -22.2241   45.4528 C   0  0  0  1  0  0
   -4.7226  -22.7430   46.8106 N   0  0  0  1  0  0
   -2.2869  -25.7154   49.4968 C   0  0  0  1  0  0
   -3.8205  -25.8741   49.4421 C   0  0  0  1  0  0
   -4.4382  -25.6265   50.7745 N   0  0  0  1  0  0
   -5.2721  -26.5484   51.4015 C   0  0  0  1  0  0
   -4.9909  -27.9328   51.3471 C   0  0  0  1  0  0
   -5.8333  -28.8624   51.9784 C   0  0  0  1  0  0
   -6.9684  -28.4248   52.6820 C   0  0  0  1  0  0
   -7.8725  -29.4245   53.3619 C   0  0  0  1  0  0
   -8.5862  -30.3370   52.3787 C   0  0  0  1  0  0
   -7.9732  -31.2477   51.8696 O   0  0  0  1  0  0
   -9.8702  -30.1099   52.1024 O   0  0  0  1  0  0
   -8.6145  -29.0195   54.6268 C   0  0  0  1  0  0
   -7.4672  -29.9961   54.7121 C   0  0  0  1  0  0
   -7.2574  -27.0505   52.7453 C   0  0  0  1  0  0
   -6.4184  -26.1210   52.1095 C   0  0  0  1  0  0
   -4.0810  -24.3188   51.3918 C   0  0  0  1  0  0
   -2.5486  -24.1902   51.5036 C   0  0  0  1  0  0
   -1.8767  -25.7696   52.8837 H   0  0
   -0.8218  -26.2785   54.1956 H   0  0
   -0.5475  -26.9428   52.5386 H   0  0
    0.9277  -25.1998   53.3929 H   0  0
   -0.3039  -23.8304   54.7286 H   0  0
   -1.3588  -23.3216   53.4167 H   0  0
    0.3446  -22.7223   53.4582 H   0  0
    2.5327  -24.5843   52.2883 H   0  0
    3.6895  -24.2748   50.1278 H   0  0
    2.3644  -24.1144   48.0285 H   0  0
   -0.0979  -24.2080   48.1122 H   0  0
   -2.3853  -24.0731   47.4292 H   0  0
   -3.7557  -21.4558   48.1919 H   0  0
   -2.2899  -20.6292   46.6909 H   0  0
   -3.3831  -21.0804   44.3538 H   0  0
   -4.2530  -20.1628   45.6437 H   0  0
   -5.8335  -21.8198   45.2892 H   0  0
   -4.6038  -23.0096   44.7332 H   0  0
   -4.6396  -23.8094   46.7841 H   0  0
   -1.8927  -25.7770   48.4824 H   0  0
   -1.8689  -26.5520   50.0566 H   0  0
   -4.2293  -25.1662   48.7211 H   0  0
   -4.0665  -26.8847   49.1162 H   0  0
   -4.1100  -28.2828   50.8089 H   0  0
   -5.6059  -29.9270   51.9225 H   0  0
   -9.9056  -29.1176   51.7610 H   0  0
   -9.5781  -29.5231   54.7039 H   0  0
   -8.3214  -28.0240   54.9604 H   0  0
   -6.5624  -29.5217   55.0921 H   0  0
   -7.8189  -31.0206   54.8340 H   0  0
   -8.1361  -26.7050   53.2900 H   0  0
   -6.6538  -25.0580   52.1626 H   0  0
   -4.5226  -24.2540   52.3862 H   0  0
   -4.4677  -23.5088   50.7734 H   0  0
   -2.3074  -23.2064   51.9063 H   0  0
   -2.1847  -24.9328   52.2138 H   0  0
  1  2  1  0
  2  3  1  0
  2  4  1  0
  4  5  2  0
  4  9  1  0
  5  6  1  0
  6  7  2  0
  7  8  1  0
  8  9  2  0
  9 10  1  0
 10 11  1  0
 10 19  1  0
 10 35  1  0
 11 12  2  0
 11 13  1  0
 13 14  1  0
 14 15  1  0
 14 18  1  0
 15 16  1  0
 16 17  1  0
 17 18  1  0
 19 20  1  0
 20 21  1  0
 21 22  1  0
 21 34  1  0
 22 23  2  0
 22 33  1  0
 23 24  1  0
 24 25  2  0
 25 26  1  0
 25 32  1  0
 26 27  1  0
 26 30  1  0
 26 31  1  0
 27 28  2  0
 27 29  1  0
 30 31  1  0
 32 33  2  0
 34 35  1  0
  1 36  1  0
  1 37  1  0
  1 38  1  0
  2 39  1  0
  3 40  1  0
  3 41  1  0
  3 42  1  0
  5 43  1  0
  6 44  1  0
  7 45  1  0
  8 46  1  0
 13 47  1  0
 14 48  1  0
 15 49  1  0
 16 50  1  0
 16 51  1  0
 17 52  1  0
 17 53  1  0
 18 54  1  0
 19 55  1  0
 19 56  1  0
 20 57  1  0
 20 58  1  0
 23 59  1  0
 24 60  1  0
 29 61  1  0
 30 62  1  0
 30 63  1  0
 31 64  1  0
 31 65  1  0
 32 66  1  0
 33 67  1  0
 34 68  1  0
 34 69  1  0
 35 70  1  0
 35 71  1  0
M  END
> <Name>
Molecule

> <AbsoluteEnergy>
65.7679

> <Clean Energy>
225.967

> <ConfNumber>
92

> <MOL_NUMBER>
5

> <RelativeEnergy>
17.4658

> <POSE_NUMBER>
47

> <LibDockScore>
119.7106

> <HotSpots>
1.67,-24.32,50.98,A,50,5
-4.93,-21.52,45.19,A,11,16
-6.33,-26.32,51.98,A,57,33

$$$$
Molecule
  SciTegic05072616053D

 71 75  0  0  0  0            999 V2000
   -3.0628  -22.6433   47.0589 C   0  0  0  1  0  0
   -3.1426  -23.9982   47.7909 C   0  0  0  1  0  0
   -3.7380  -25.0868   46.8770 C   0  0  0  1  0  0
   -3.8929  -23.8937   49.1011 C   0  0  0  1  0  0
   -5.2338  -23.4519   49.0264 C   0  0  0  1  0  0
   -6.0022  -23.2591   50.1796 C   0  0  0  1  0  0
   -5.4318  -23.4824   51.4336 C   0  0  0  1  0  0
   -4.1098  -23.9316   51.5289 C   0  0  0  1  0  0
   -3.3232  -24.2069   50.3795 C   0  0  0  1  0  0
   -1.9226  -24.8229   50.5417 C   0  0  0  1  0  0
   -0.8331  -23.8849   49.9928 C   0  0  0  1  0  0
   -1.0968  -22.7656   49.6128 O   0  0  0  1  0  0
    0.4726  -24.3253   49.9276 N   0  0  0  1  0  0
    1.5715  -23.4972   49.3725 C   0  0  0  1  0  0
    1.7759  -22.2290   50.0805 N   0  0  0  1  0  0
    3.1559  -21.8712   49.7858 C   0  0  0  1  0  0
    3.8814  -23.1862   49.5284 C   0  0  0  1  0  0
    2.8430  -24.2064   49.4890 N   0  0  0  1  0  0
   -1.8601  -26.2274   49.8663 C   0  0  0  1  0  0
   -2.8751  -27.2240   50.4374 C   0  0  0  1  0  0
   -2.7490  -27.3934   51.9139 N   0  0  0  1  0  0
   -3.0940  -28.5995   52.5112 C   0  0  0  1  0  0
   -2.4853  -29.0241   53.7136 C   0  0  0  1  0  0
   -2.9444  -30.1709   54.3787 C   0  0  0  1  0  0
   -4.0100  -30.9145   53.8428 C   0  0  0  1  0  0
   -4.6131  -32.0586   54.6216 C   0  0  0  1  0  0
   -5.8408  -31.6097   55.4177 C   0  0  0  1  0  0
   -6.2875  -32.3307   56.2800 O   0  0  0  1  0  0
   -6.3921  -30.4239   55.1384 O   0  0  0  1  0  0
   -3.7041  -33.1390   55.1879 C   0  0  0  1  0  0
   -4.6097  -33.4545   54.0200 C   0  0  0  1  0  0
   -4.5389  -30.5691   52.5871 C   0  0  0  1  0  0
   -4.0849  -29.4177   51.9259 C   0  0  0  1  0  0
   -2.3286  -26.2293   52.7586 C   0  0  0  1  0  0
   -1.5295  -25.1268   52.0260 C   0  0  0  1  0  0
   -4.0664  -22.3509   46.7501 H   0  0
   -2.4371  -22.7582   46.1738 H   0  0
   -2.6402  -21.8841   47.7170 H   0  0
   -2.1233  -24.2943   48.0389 H   0  0
   -3.1082  -25.1868   45.9930 H   0  0
   -4.7375  -24.7795   46.5693 H   0  0
   -3.7881  -26.0377   47.4074 H   0  0
   -5.6781  -23.2575   48.0503 H   0  0
   -7.0402  -22.9364   50.0991 H   0  0
   -6.0152  -23.3072   52.3375 H   0  0
   -3.6705  -24.0745   52.5161 H   0  0
    0.7024  -25.3046   50.2924 H   0  0
    1.2753  -23.3002   48.3422 H   0  0
    1.1121  -21.4822   49.6978 H   0  0
    3.6014  -21.3638   50.6415 H   0  0
    3.1965  -21.2450   48.8945 H   0  0
    4.5766  -23.3936   50.3419 H   0  0
    4.3987  -23.1438   48.5699 H   0  0
    2.9873  -24.8390   48.6382 H   0  0
   -2.0410  -26.1141   48.7974 H   0  0
   -0.8573  -26.6362   49.9905 H   0  0
   -3.8823  -26.8775   50.2058 H   0  0
   -2.7330  -28.1921   49.9570 H   0  0
   -1.6523  -28.4560   54.1278 H   0  0
   -2.4748  -30.4852   55.3108 H   0  0
   -6.6227  -30.4624   54.1148 H   0  0
   -4.0962  -33.5432   56.1212 H   0  0
   -2.6711  -32.9994   54.8694 H   0  0
   -4.0581  -33.4843   53.0804 H   0  0
   -5.4836  -34.0265   54.3320 H   0  0
   -5.3023  -31.1962   52.1266 H   0  0
   -4.5001  -29.1530   50.9535 H   0  0
   -1.7264  -26.6016   53.5874 H   0  0
   -3.2199  -25.7795   53.1960 H   0  0
   -1.6165  -24.2044   52.6002 H   0  0
   -0.4737  -25.3963   52.0525 H   0  0
  1  2  1  0
  2  3  1  0
  2  4  1  0
  4  5  2  0
  4  9  1  0
  5  6  1  0
  6  7  2  0
  7  8  1  0
  8  9  2  0
  9 10  1  0
 10 11  1  0
 10 19  1  0
 10 35  1  0
 11 12  2  0
 11 13  1  0
 13 14  1  0
 14 15  1  0
 14 18  1  0
 15 16  1  0
 16 17  1  0
 17 18  1  0
 19 20  1  0
 20 21  1  0
 21 22  1  0
 21 34  1  0
 22 23  2  0
 22 33  1  0
 23 24  1  0
 24 25  2  0
 25 26  1  0
 25 32  1  0
 26 27  1  0
 26 30  1  0
 26 31  1  0
 27 28  2  0
 27 29  1  0
 30 31  1  0
 32 33  2  0
 34 35  1  0
  1 36  1  0
  1 37  1  0
  1 38  1  0
  2 39  1  0
  3 40  1  0
  3 41  1  0
  3 42  1  0
  5 43  1  0
  6 44  1  0
  7 45  1  0
  8 46  1  0
 13 47  1  0
 14 48  1  0
 15 49  1  0
 16 50  1  0
 16 51  1  0
 17 52  1  0
 17 53  1  0
 18 54  1  0
 19 55  1  0
 19 56  1  0
 20 57  1  0
 20 58  1  0
 23 59  1  0
 24 60  1  0
 29 61  1  0
 30 62  1  0
 30 63  1  0
 31 64  1  0
 31 65  1  0
 32 66  1  0
 33 67  1  0
 34 68  1  0
 34 69  1  0
 35 70  1  0
 35 71  1  0
M  END
> <Name>
Molecule

> <AbsoluteEnergy>
58.6128

> <Clean Energy>
225.967

> <ConfNumber>
45

> <MOL_NUMBER>
5

> <RelativeEnergy>
10.3106

> <POSE_NUMBER>
48

> <LibDockScore>
118.3022

> <HotSpots>
-5.13,-23.32,51.38,A,54,7
4.07,-23.72,49.78,A,37,17
-4.33,-32.92,55.19,A,75,30

$$$$
Molecule
  SciTegic05072616053D

 71 75  0  0  0  0            999 V2000
   -3.2739  -25.8398   46.5106 C   0  0  0  1  0  0
   -3.2898  -24.3953   47.0481 C   0  0  0  1  0  0
   -4.5085  -24.0793   47.9267 C   0  0  0  1  0  0
   -1.9266  -23.8688   47.4931 C   0  0  0  1  0  0
   -1.3020  -23.0313   46.5343 C   0  0  0  1  0  0
   -0.0624  -22.4315   46.7630 C   0  0  0  1  0  0
    0.5958  -22.6558   47.9688 C   0  0  0  1  0  0
    0.0165  -23.4859   48.9336 C   0  0  0  1  0  0
   -1.2379  -24.1295   48.7374 C   0  0  0  1  0  0
   -1.7621  -25.0487   49.8619 C   0  0  0  1  0  0
   -2.7778  -24.2816   50.7253 C   0  0  0  1  0  0
   -2.4229  -23.2928   51.3293 O   0  0  0  1  0  0
   -4.0938  -24.6838   50.8339 N   0  0  0  1  0  0
   -5.1545  -23.7480   51.2745 C   0  0  0  1  0  0
   -5.0585  -22.4796   50.5487 N   0  0  0  1  0  0
   -6.4093  -22.1010   50.1506 C   0  0  0  1  0  0
   -7.3282  -23.1320   50.7814 C   0  0  0  1  0  0
   -6.4795  -24.2900   50.9806 N   0  0  0  1  0  0
   -2.2737  -26.3980   49.2346 C   0  0  0  1  0  0
   -1.8074  -27.6992   49.9249 C   0  0  0  1  0  0
   -1.8825  -27.5841   51.4053 N   0  0  0  1  0  0
   -2.6622  -28.4160   52.2108 C   0  0  0  1  0  0
   -2.4711  -28.4353   53.6125 C   0  0  0  1  0  0
   -3.2542  -29.2589   54.4370 C   0  0  0  1  0  0
   -4.2435  -30.0849   53.8771 C   0  0  0  1  0  0
   -5.0923  -30.9697   54.7653 C   0  0  0  1  0  0
   -6.4014  -30.3168   55.2269 C   0  0  0  1  0  0
   -6.4115  -29.1501   55.5480 O   0  0  0  1  0  0
   -7.5280  -31.0299   55.2760 O   0  0  0  1  0  0
   -4.3809  -31.9229   55.7155 C   0  0  0  1  0  0
   -5.0810  -32.4672   54.4940 C   0  0  0  1  0  0
   -4.4434  -30.0789   52.4862 C   0  0  0  1  0  0
   -3.6647  -29.2505   51.6622 C   0  0  0  1  0  0
   -1.0754  -26.4729   51.9778 C   0  0  0  1  0  0
   -0.6489  -25.4507   50.8997 C   0  0  0  1  0  0
   -4.1883  -25.9890   45.9364 H   0  0
   -3.2915  -26.5120   47.3685 H   0  0
   -2.3949  -26.0239   45.8929 H   0  0
   -3.4716  -23.7499   46.1887 H   0  0
   -4.5055  -24.7810   48.7608 H   0  0
   -5.4022  -24.2580   47.3288 H   0  0
   -4.4830  -23.0507   48.2864 H   0  0
   -1.8074  -22.8496   45.5858 H   0  0
    0.3868  -21.7922   46.0029 H   0  0
    1.5603  -22.1856   48.1605 H   0  0
    0.5462  -23.6464   49.8726 H   0  0
   -4.3536  -25.6938   50.5946 H   0  0
   -5.0196  -23.6009   52.3461 H   0  0
   -4.4476  -22.6047   49.6792 H   0  0
   -6.6468  -21.1086   50.5338 H   0  0
   -6.5029  -22.1357   49.0652 H   0  0
   -8.1429  -23.3758   50.0996 H   0  0
   -7.6981  -22.7674   51.7397 H   0  0
   -6.8337  -24.8651   51.8105 H   0  0
   -1.9635  -26.4337   48.1903 H   0  0
   -3.3636  -26.3844   49.2285 H   0  0
   -0.7785  -27.9118   49.6347 H   0  0
   -2.4390  -28.5252   49.5980 H   0  0
   -1.7048  -27.8016   54.0588 H   0  0
   -3.0942  -29.2575   55.5152 H   0  0
   -7.2954  -31.8460   55.8944 H   0  0
   -4.9626  -32.0924   56.6216 H   0  0
   -3.3000  -31.8901   55.5788 H   0  0
   -4.3733  -32.7257   53.7063 H   0  0
   -6.0362  -32.9264   54.7487 H   0  0
   -5.2064  -30.7202   52.0450 H   0  0
   -3.8347  -29.2502   50.5855 H   0  0
   -0.1840  -26.8853   52.4504 H   0  0
   -1.6627  -25.9623   52.7410 H   0  0
   -0.2964  -24.5484   51.3995 H   0  0
    0.2030  -25.8580   50.3551 H   0  0
  1  2  1  0
  2  3  1  0
  2  4  1  0
  4  5  2  0
  4  9  1  0
  5  6  1  0
  6  7  2  0
  7  8  1  0
  8  9  2  0
  9 10  1  0
 10 11  1  0
 10 19  1  0
 10 35  1  0
 11 12  2  0
 11 13  1  0
 13 14  1  0
 14 15  1  0
 14 18  1  0
 15 16  1  0
 16 17  1  0
 17 18  1  0
 19 20  1  0
 20 21  1  0
 21 22  1  0
 21 34  1  0
 22 23  2  0
 22 33  1  0
 23 24  1  0
 24 25  2  0
 25 26  1  0
 25 32  1  0
 26 27  1  0
 26 30  1  0
 26 31  1  0
 27 28  2  0
 27 29  1  0
 30 31  1  0
 32 33  2  0
 34 35  1  0
  1 36  1  0
  1 37  1  0
  1 38  1  0
  2 39  1  0
  3 40  1  0
  3 41  1  0
  3 42  1  0
  5 43  1  0
  6 44  1  0
  7 45  1  0
  8 46  1  0
 13 47  1  0
 14 48  1  0
 15 49  1  0
 16 50  1  0
 16 51  1  0
 17 52  1  0
 17 53  1  0
 18 54  1  0
 19 55  1  0
 19 56  1  0
 20 57  1  0
 20 58  1  0
 23 59  1  0
 24 60  1  0
 29 61  1  0
 30 62  1  0
 30 63  1  0
 31 64  1  0
 31 65  1  0
 32 66  1  0
 33 67  1  0
 34 68  1  0
 34 69  1  0
 35 70  1  0
 35 71  1  0
M  END
> <Name>
Molecule

> <AbsoluteEnergy>
65.0351

> <Clean Energy>
225.967

> <ConfNumber>
89

> <MOL_NUMBER>
5

> <RelativeEnergy>
16.733

> <POSE_NUMBER>
49

> <LibDockScore>
118.2079

> <HotSpots>
-2.93,-26.32,45.98,A,15,1
1.27,-23.52,47.59,A,27,7
-7.33,-24.12,50.38,A,44,16

$$$$
Molecule
  SciTegic05072616053D

 71 75  0  0  0  0            999 V2000
   -5.7287  -32.1983   52.2852 C   0  0  0  1  0  0
   -4.3199  -32.3725   52.8820 C   0  0  0  1  0  0
   -3.8456  -33.8350   52.7854 C   0  0  0  1  0  0
   -4.2474  -31.8464   54.2975 C   0  0  0  1  0  0
   -4.3624  -32.8015   55.3328 C   0  0  0  1  0  0
   -4.3048  -32.4260   56.6794 C   0  0  0  1  0  0
   -4.1277  -31.0821   57.0152 C   0  0  0  1  0  0
   -4.0136  -30.1170   56.0057 C   0  0  0  1  0  0
   -4.0731  -30.4631   54.6305 C   0  0  0  1  0  0
   -3.9501  -29.3639   53.5658 C   0  0  0  1  0  0
   -5.3013  -29.0353   52.9167 C   0  0  0  1  0  0
   -5.4897  -29.2730   51.7437 O   0  0  0  1  0  0
   -6.3100  -28.4530   53.6550 N   0  0  0  1  0  0
   -7.6570  -28.2278   53.0707 C   0  0  0  1  0  0
   -8.4960  -27.4626   53.9988 N   0  0  0  1  0  0
   -9.3300  -28.4469   54.6696 C   0  0  0  1  0  0
   -9.5392  -29.5334   53.6325 C   0  0  0  1  0  0
   -8.3313  -29.5078   52.8213 N   0  0  0  1  0  0
   -2.8504  -29.7607   52.5444 C   0  0  0  1  0  0
   -2.6057  -28.7527   51.4001 C   0  0  0  1  0  0
   -2.9380  -27.3139   51.6845 N   0  0  0  1  0  0
   -2.9087  -26.3705   50.6462 C   0  0  0  1  0  0
   -2.3969  -26.7005   49.3660 C   0  0  0  1  0  0
   -2.4164  -25.7687   48.3148 C   0  0  0  1  0  0
   -2.9429  -24.4838   48.5200 C   0  0  0  1  0  0
   -3.0071  -23.4931   47.3821 C   0  0  0  1  0  0
   -4.2002  -23.7431   46.4712 C   0  0  0  1  0  0
   -4.3265  -24.8235   45.9428 O   0  0  0  1  0  0
   -5.0813  -22.7599   46.2859 O   0  0  0  1  0  0
   -1.7166  -22.9562   46.7821 C   0  0  0  1  0  0
   -2.5851  -22.0519   47.6224 C   0  0  0  1  0  0
   -3.4226  -24.1262   49.7901 C   0  0  0  1  0  0
   -3.4016  -25.0559   50.8403 C   0  0  0  1  0  0
   -3.3490  -26.8935   53.0655 C   0  0  0  1  0  0
   -3.4009  -28.0166   54.1148 C   0  0  0  1  0  0
   -6.4199  -32.8425   52.8288 H   0  0
   -5.7051  -32.5057   51.2397 H   0  0
   -6.0474  -31.1588   52.3621 H   0  0
   -3.6331  -31.7726   52.2849 H   0  0
   -3.8362  -34.1300   51.7361 H   0  0
   -4.5510  -34.4668   53.3252 H   0  0
   -2.8480  -33.9392   53.2121 H   0  0
   -4.4988  -33.8522   55.0770 H   0  0
   -4.3977  -33.1786   57.4624 H   0  0
   -4.0782  -30.7839   58.0625 H   0  0
   -3.8754  -29.0722   56.2841 H   0  0
   -6.1192  -28.1584   54.6658 H   0  0
   -7.5212  -27.6811   52.1376 H   0  0
   -7.8823  -26.9552   54.7136 H   0  0
  -10.2874  -28.0049   54.9455 H   0  0
   -8.8090  -28.8534   55.5365 H   0  0
   -9.6417  -30.5020   54.1217 H   0  0
  -10.4086  -29.3015   53.0173 H   0  0
   -8.5903  -29.5840   51.7859 H   0  0
   -3.1132  -30.7237   52.1066 H   0  0
   -1.9138  -29.9076   53.0823 H   0  0
   -1.5569  -28.8102   51.1087 H   0  0
   -3.1810  -29.0708   50.5306 H   0  0
   -1.9814  -27.6935   49.1945 H   0  0
   -2.0215  -26.0443   47.3370 H   0  0
   -4.5190  -21.9496   45.9257 H   0  0
   -1.8272  -22.7455   45.7184 H   0  0
   -0.8440  -23.3038   47.3352 H   0  0
   -2.1750  -21.9166   48.6232 H   0  0
   -3.1593  -21.3595   47.0067 H   0  0
   -3.8127  -23.1228   49.9607 H   0  0
   -3.7708  -24.7622   51.8229 H   0  0
   -2.6581  -26.1255   53.4134 H   0  0
   -4.3326  -26.4273   53.0080 H   0  0
   -4.0281  -27.6926   54.9453 H   0  0
   -2.3965  -28.1777   54.5064 H   0  0
  1  2  1  0
  2  3  1  0
  2  4  1  0
  4  5  2  0
  4  9  1  0
  5  6  1  0
  6  7  2  0
  7  8  1  0
  8  9  2  0
  9 10  1  0
 10 11  1  0
 10 19  1  0
 10 35  1  0
 11 12  2  0
 11 13  1  0
 13 14  1  0
 14 15  1  0
 14 18  1  0
 15 16  1  0
 16 17  1  0
 17 18  1  0
 19 20  1  0
 20 21  1  0
 21 22  1  0
 21 34  1  0
 22 23  2  0
 22 33  1  0
 23 24  1  0
 24 25  2  0
 25 26  1  0
 25 32  1  0
 26 27  1  0
 26 30  1  0
 26 31  1  0
 27 28  2  0
 27 29  1  0
 30 31  1  0
 32 33  2  0
 34 35  1  0
  1 36  1  0
  1 37  1  0
  1 38  1  0
  2 39  1  0
  3 40  1  0
  3 41  1  0
  3 42  1  0
  5 43  1  0
  6 44  1  0
  7 45  1  0
  8 46  1  0
 13 47  1  0
 14 48  1  0
 15 49  1  0
 16 50  1  0
 16 51  1  0
 17 52  1  0
 17 53  1  0
 18 54  1  0
 19 55  1  0
 19 56  1  0
 20 57  1  0
 20 58  1  0
 23 59  1  0
 24 60  1  0
 29 61  1  0
 30 62  1  0
 30 63  1  0
 31 64  1  0
 31 65  1  0
 32 66  1  0
 33 67  1  0
 34 68  1  0
 34 69  1  0
 35 70  1  0
 35 71  1  0
M  END
> <Name>
Molecule

> <AbsoluteEnergy>
50.0423

> <Clean Energy>
225.967

> <ConfNumber>
4

> <MOL_NUMBER>
5

> <RelativeEnergy>
1.74016

> <POSE_NUMBER>
50

> <LibDockScore>
117.9886

> <HotSpots>
-4.33,-32.92,55.19,A,75,5
-8.53,-31.32,51.19,A,51,17
-0.93,-23.32,46.98,A,25,30

$$$$
Molecule
  SciTegic05072616053D

 71 75  0  0  0  0            999 V2000
   -0.9753  -25.0634   46.4033 C   0  0  0  1  0  0
   -2.2680  -25.6391   47.0459 C   0  0  0  1  0  0
   -2.8259  -26.8255   46.2184 C   0  0  0  1  0  0
   -3.3149  -24.5578   47.2426 C   0  0  0  1  0  0
   -3.9093  -24.0359   46.0683 C   0  0  0  1  0  0
   -4.9140  -23.0547   46.1229 C   0  0  0  1  0  0
   -5.3349  -22.5627   47.3684 C   0  0  0  1  0  0
   -4.7379  -23.0476   48.5457 C   0  0  0  1  0  0
   -3.7261  -24.0536   48.5283 C   0  0  0  1  0  0
   -3.1519  -24.5946   49.8457 C   0  0  0  1  0  0
   -1.7093  -24.1265   50.0731 C   0  0  0  1  0  0
   -1.2854  -23.1070   49.5687 O   0  0  0  1  0  0
   -0.8722  -24.8992   50.8590 N   0  0  0  1  0  0
    0.5652  -24.5700   51.1122 C   0  0  0  1  0  0
    0.7957  -23.4378   52.0157 N   0  0  0  1  0  0
    0.6513  -23.9576   53.3755 C   0  0  0  1  0  0
    0.9630  -25.4439   53.2571 C   0  0  0  1  0  0
    1.2316  -25.6580   51.8309 N   0  0  0  1  0  0
   -3.8949  -24.0854   51.1338 C   0  0  0  1  0  0
   -5.2038  -24.8354   51.4770 C   0  0  0  1  0  0
   -4.9856  -26.3077   51.5942 N   0  0  0  1  0  0
   -5.9721  -27.1584   52.0993 C   0  0  0  1  0  0
   -7.2954  -26.7031   52.3434 C   0  0  0  1  0  0
   -8.3133  -27.6185   52.6775 C   0  0  0  1  0  0
   -8.0230  -28.9834   52.7718 C   0  0  0  1  0  0
   -9.1560  -29.9654   52.8919 C   0  0  0  1  0  0
   -9.3019  -30.6514   51.5343 C   0  0  0  1  0  0
   -9.9577  -30.1196   50.6656 O   0  0  0  1  0  0
   -8.6512  -31.8098   51.3411 O   0  0  0  1  0  0
  -10.3700  -29.6714   53.7504 C   0  0  0  1  0  0
   -9.4085  -30.7431   54.1704 C   0  0  0  1  0  0
   -6.6896  -29.4266   52.6971 C   0  0  0  1  0  0
   -5.6701  -28.5172   52.3634 C   0  0  0  1  0  0
   -3.6804  -26.8283   51.1099 C   0  0  0  1  0  0
   -3.2959  -26.1593   49.7704 C   0  0  0  1  0  0
   -1.2068  -24.7262   45.3930 H   0  0
   -0.2278  -25.8550   46.3512 H   0  0
   -0.5965  -24.2312   46.9966 H   0  0
   -2.0053  -26.0221   48.0320 H   0  0
   -2.0657  -27.6050   46.1676 H   0  0
   -3.0447  -26.4762   45.2093 H   0  0
   -3.7313  -27.2172   46.6821 H   0  0
   -3.5792  -24.4045   45.0971 H   0  0
   -5.3635  -22.6782   45.2041 H   0  0
   -6.1203  -21.8088   47.4227 H   0  0
   -5.0592  -22.6409   49.5046 H   0  0
   -1.2755  -25.7813   51.3108 H   0  0
    0.9382  -24.3655   50.1086 H   0  0
    0.0661  -22.6754   51.8389 H   0  0
    1.3704  -23.4776   54.0392 H   0  0
   -0.3717  -23.8181   53.7251 H   0  0
    1.8475  -25.6880   53.8455 H   0  0
    0.1004  -26.0332   53.5681 H   0  0
    0.8267  -26.5992   51.5226 H   0  0
   -4.1236  -23.0268   51.0104 H   0  0
   -3.2160  -24.1653   51.9828 H   0  0
   -5.9412  -24.6456   50.6970 H   0  0
   -5.5960  -24.4570   52.4210 H   0  0
   -7.5247  -25.6399   52.2719 H   0  0
   -9.3269  -27.2628   52.8624 H   0  0
   -8.9836  -32.4506   52.1036 H   0  0
  -11.2780  -30.0908   53.3170 H   0  0
  -10.2370  -28.7590   54.3317 H   0  0
   -8.7574  -30.4078   54.9777 H   0  0
   -9.7976  -31.7396   53.9614 H   0  0
   -6.4479  -30.4705   52.8971 H   0  0
   -4.6373  -28.8612   52.3074 H   0  0
   -3.7515  -27.9065   50.9668 H   0  0
   -2.9102  -26.6181   51.8520 H   0  0
   -2.3528  -26.5836   49.4259 H   0  0
   -4.0526  -26.4069   49.0259 H   0  0
  1  2  1  0
  2  3  1  0
  2  4  1  0
  4  5  2  0
  4  9  1  0
  5  6  1  0
  6  7  2  0
  7  8  1  0
  8  9  2  0
  9 10  1  0
 10 11  1  0
 10 19  1  0
 10 35  1  0
 11 12  2  0
 11 13  1  0
 13 14  1  0
 14 15  1  0
 14 18  1  0
 15 16  1  0
 16 17  1  0
 17 18  1  0
 19 20  1  0
 20 21  1  0
 21 22  1  0
 21 34  1  0
 22 23  2  0
 22 33  1  0
 23 24  1  0
 24 25  2  0
 25 26  1  0
 25 32  1  0
 26 27  1  0
 26 30  1  0
 26 31  1  0
 27 28  2  0
 27 29  1  0
 30 31  1  0
 32 33  2  0
 34 35  1  0
  1 36  1  0
  1 37  1  0
  1 38  1  0
  2 39  1  0
  3 40  1  0
  3 41  1  0
  3 42  1  0
  5 43  1  0
  6 44  1  0
  7 45  1  0
  8 46  1  0
 13 47  1  0
 14 48  1  0
 15 49  1  0
 16 50  1  0
 16 51  1  0
 17 52  1  0
 17 53  1  0
 18 54  1  0
 19 55  1  0
 19 56  1  0
 20 57  1  0
 20 58  1  0
 23 59  1  0
 24 60  1  0
 29 61  1  0
 30 62  1  0
 30 63  1  0
 31 64  1  0
 31 65  1  0
 32 66  1  0
 33 67  1  0
 34 68  1  0
 34 69  1  0
 35 70  1  0
 35 71  1  0
M  END
> <Name>
Molecule

> <AbsoluteEnergy>
62.488

> <Clean Energy>
225.967

> <ConfNumber>
76

> <MOL_NUMBER>
5

> <RelativeEnergy>
14.1859

> <POSE_NUMBER>
51

> <LibDockScore>
117.9529

> <HotSpots>
-5.13,-22.92,46.19,A,18,6
0.87,-24.32,52.78,A,63,16
-7.93,-28.32,52.38,A,59,24

$$$$
Molecule
  SciTegic05072616053D

 71 75  0  0  0  0            999 V2000
   -0.8396  -24.7668   46.5381 C   0  0  0  1  0  0
   -2.1065  -25.4671   47.1039 C   0  0  0  1  0  0
   -2.5254  -26.6696   46.2196 C   0  0  0  1  0  0
   -3.2484  -24.4829   47.2806 C   0  0  0  1  0  0
   -3.8328  -23.9770   46.0944 C   0  0  0  1  0  0
   -4.9181  -23.0846   46.1285 C   0  0  0  1  0  0
   -5.4329  -22.6670   47.3658 C   0  0  0  1  0  0
   -4.8491  -23.1358   48.5562 C   0  0  0  1  0  0
   -3.7563  -24.0535   48.5589 C   0  0  0  1  0  0
   -3.1965  -24.5843   49.8866 C   0  0  0  1  0  0
   -1.7710  -24.0816   50.1454 C   0  0  0  1  0  0
   -1.4066  -22.9853   49.7725 O   0  0  0  1  0  0
   -0.8798  -24.9099   50.8048 N   0  0  0  1  0  0
    0.4031  -24.4339   51.4098 C   0  0  0  1  0  0
    0.2559  -23.5968   52.6052 N   0  0  0  1  0  0
    0.0396  -24.5111   53.7264 C   0  0  0  1  0  0
    0.6783  -25.8220   53.2860 C   0  0  0  1  0  0
    1.1823  -25.5575   51.9339 N   0  0  0  1  0  0
   -3.9787  -24.0975   51.1602 C   0  0  0  1  0  0
   -5.2755  -24.8806   51.4739 C   0  0  0  1  0  0
   -5.0236  -26.3474   51.5918 N   0  0  0  1  0  0
   -5.9991  -27.2237   52.0739 C   0  0  0  1  0  0
   -7.3267  -26.7906   52.3349 C   0  0  0  1  0  0
   -8.3335  -27.7268   52.6442 C   0  0  0  1  0  0
   -8.0278  -29.0906   52.6970 C   0  0  0  1  0  0
   -9.1495  -30.0883   52.7907 C   0  0  0  1  0  0
   -9.3549  -30.6663   51.3913 C   0  0  0  1  0  0
  -10.1278  -30.1258   50.6311 O   0  0  0  1  0  0
   -8.6267  -31.7382   51.0397 O   0  0  0  1  0  0
  -10.3238  -29.8729   53.7244 C   0  0  0  1  0  0
   -9.3390  -30.9664   54.0140 C   0  0  0  1  0  0
   -6.6898  -29.5165   52.6057 C   0  0  0  1  0  0
   -5.6814  -28.5863   52.2967 C   0  0  0  1  0  0
   -3.6962  -26.8342   51.1336 C   0  0  0  1  0  0
   -3.3003  -26.1518   49.8042 C   0  0  0  1  0  0
   -1.0537  -24.4190   45.5275 H   0  0
   -0.0265  -25.4918   46.4997 H   0  0
   -0.5589  -23.9247   47.1707 H   0  0
   -1.8564  -25.8571   48.0905 H   0  0
   -1.7008  -27.3815   46.1833 H   0  0
   -2.7279  -26.3088   45.2112 H   0  0
   -3.4143  -27.1490   46.6297 H   0  0
   -3.4307  -24.2876   45.1300 H   0  0
   -5.3572  -22.7192   45.2002 H   0  0
   -6.2807  -21.9830   47.4037 H   0  0
   -5.2450  -22.7861   49.5097 H   0  0
   -1.1218  -25.9490   50.8865 H   0  0
    0.8588  -23.8829   50.5871 H   0  0
   -0.5893  -22.9498   52.4958 H   0  0
    0.5387  -24.1347   54.6194 H   0  0
   -1.0278  -24.6546   53.8945 H   0  0
    1.5041  -26.0767   53.9503 H   0  0
   -0.0713  -26.6128   53.2580 H   0  0
    1.0371  -26.4198   51.3172 H   0  0
   -4.2308  -23.0445   51.0347 H   0  0
   -3.3159  -24.1632   52.0230 H   0  0
   -6.0009  -24.7066   50.6791 H   0  0
   -5.6966  -24.5150   52.4104 H   0  0
   -7.5679  -25.7283   52.2957 H   0  0
   -9.3504  -27.3881   52.8423 H   0  0
   -8.8345  -32.4701   51.7633 H   0  0
  -11.2489  -30.2643   53.3012 H   0  0
  -10.1683  -29.0081   54.3694 H   0  0
   -8.6528  -30.6904   54.8146 H   0  0
   -9.7328  -31.9465   53.7449 H   0  0
   -6.4360  -30.5631   52.7738 H   0  0
   -4.6450  -28.9169   52.2279 H   0  0
   -3.7377  -27.9134   50.9863 H   0  0
   -2.9471  -26.6075   51.8923 H   0  0
   -2.3400  -26.5517   49.4785 H   0  0
   -4.0349  -26.4156   49.0434 H   0  0
  1  2  1  0
  2  3  1  0
  2  4  1  0
  4  5  2  0
  4  9  1  0
  5  6  1  0
  6  7  2  0
  7  8  1  0
  8  9  2  0
  9 10  1  0
 10 11  1  0
 10 19  1  0
 10 35  1  0
 11 12  2  0
 11 13  1  0
 13 14  1  0
 14 15  1  0
 14 18  1  0
 15 16  1  0
 16 17  1  0
 17 18  1  0
 19 20  1  0
 20 21  1  0
 21 22  1  0
 21 34  1  0
 22 23  2  0
 22 33  1  0
 23 24  1  0
 24 25  2  0
 25 26  1  0
 25 32  1  0
 26 27  1  0
 26 30  1  0
 26 31  1  0
 27 28  2  0
 27 29  1  0
 30 31  1  0
 32 33  2  0
 34 35  1  0
  1 36  1  0
  1 37  1  0
  1 38  1  0
  2 39  1  0
  3 40  1  0
  3 41  1  0
  3 42  1  0
  5 43  1  0
  6 44  1  0
  7 45  1  0
  8 46  1  0
 13 47  1  0
 14 48  1  0
 15 49  1  0
 16 50  1  0
 16 51  1  0
 17 52  1  0
 17 53  1  0
 18 54  1  0
 19 55  1  0
 19 56  1  0
 20 57  1  0
 20 58  1  0
 23 59  1  0
 24 60  1  0
 29 61  1  0
 30 62  1  0
 30 63  1  0
 31 64  1  0
 31 65  1  0
 32 66  1  0
 33 67  1  0
 34 68  1  0
 34 69  1  0
 35 70  1  0
 35 71  1  0
M  END
> <Name>
Molecule

> <AbsoluteEnergy>
62.488

> <Clean Energy>
225.967

> <ConfNumber>
76

> <MOL_NUMBER>
5

> <RelativeEnergy>
14.1859

> <POSE_NUMBER>
52

> <LibDockScore>
117.8519

> <HotSpots>
-4.93,-23.52,47.59,A,26,6
-5.33,-24.12,49.78,A,36,8
-10.93,-30.92,53.98,A,68,30

$$$$
Molecule
  SciTegic05072616053D

 71 75  0  0  0  0            999 V2000
   -1.7852  -24.8583   46.8309 C   0  0  0  1  0  0
   -3.2136  -25.3509   47.1363 C   0  0  0  1  0  0
   -3.9367  -25.6159   45.7940 C   0  0  0  1  0  0
   -3.9419  -24.4378   48.1117 C   0  0  0  1  0  0
   -5.0673  -23.7338   47.6095 C   0  0  0  1  0  0
   -5.8137  -22.8621   48.4050 C   0  0  0  1  0  0
   -5.4473  -22.6575   49.7313 C   0  0  0  1  0  0
   -4.3377  -23.3258   50.2550 C   0  0  0  1  0  0
   -3.5578  -24.2375   49.4910 C   0  0  0  1  0  0
   -2.3499  -24.8896   50.2135 C   0  0  0  1  0  0
   -1.0874  -24.0622   49.9192 C   0  0  0  1  0  0
   -1.1317  -23.1159   49.1623 O   0  0  0  1  0  0
    0.1210  -24.3788   50.5052 N   0  0  0  1  0  0
    1.3630  -23.6649   50.1237 C   0  0  0  1  0  0
    2.4797  -24.0422   50.9856 N   0  0  0  1  0  0
    3.6635  -23.8018   50.1836 C   0  0  0  1  0  0
    3.2277  -24.1193   48.7633 C   0  0  0  1  0  0
    1.7727  -24.0178   48.7626 N   0  0  0  1  0  0
   -2.1192  -26.4014   49.9024 C   0  0  0  1  0  0
   -3.3359  -27.2842   50.2510 C   0  0  0  1  0  0
   -3.6987  -27.1564   51.6964 N   0  0  0  1  0  0
   -3.9868  -28.2571   52.5009 C   0  0  0  1  0  0
   -3.5939  -29.5650   52.1335 C   0  0  0  1  0  0
   -3.8883  -30.6624   52.9602 C   0  0  0  1  0  0
   -4.5759  -30.4727   54.1716 C   0  0  0  1  0  0
   -4.8826  -31.6478   55.0688 C   0  0  0  1  0  0
   -3.9916  -31.6960   56.2983 C   0  0  0  1  0  0
   -4.3230  -31.0873   57.2897 O   0  0  0  1  0  0
   -2.8671  -32.4081   56.2521 O   0  0  0  1  0  0
   -5.3204  -32.9671   54.4520 C   0  0  0  1  0  0
   -6.3206  -32.1248   55.2049 C   0  0  0  1  0  0
   -4.9731  -29.1784   54.5470 C   0  0  0  1  0  0
   -4.6840  -28.0825   53.7189 C   0  0  0  1  0  0
   -3.7453  -25.7650   52.2384 C   0  0  0  1  0  0
   -2.5337  -24.9300   51.7706 C   0  0  0  1  0  0
   -1.8247  -23.9347   46.2533 H   0  0
   -1.2404  -25.6184   46.2709 H   0  0
   -1.2661  -24.6683   47.7704 H   0  0
   -3.1892  -26.2988   47.6740 H   0  0
   -3.4041  -26.3803   45.2281 H   0  0
   -3.9885  -24.6967   45.2105 H   0  0
   -4.9489  -25.9651   45.9982 H   0  0
   -5.3584  -23.8783   46.5691 H   0  0
   -6.6784  -22.3450   47.9892 H   0  0
   -6.0237  -21.9784   50.3596 H   0  0
   -4.0581  -23.1408   51.2922 H   0  0
    0.1622  -25.1504   51.2454 H   0  0
    1.1390  -22.6019   50.2123 H   0  0
    2.4956  -23.4235   51.8585 H   0  0
    4.4671  -24.4731   50.4863 H   0  0
    3.9623  -22.7562   50.2576 H   0  0
    3.6520  -23.3904   48.0729 H   0  0
    3.5301  -25.1325   48.4987 H   0  0
    1.3446  -24.9592   48.4880 H   0  0
   -1.8930  -26.5144   48.8421 H   0  0
   -1.2552  -26.7524   50.4667 H   0  0
   -4.1864  -26.9817   49.6400 H   0  0
   -3.1003  -28.3256   50.0317 H   0  0
   -3.0566  -29.7236   51.1985 H   0  0
   -3.5823  -31.6649   52.6610 H   0  0
   -2.3312  -32.0214   55.4361 H   0  0
   -4.9832  -33.8174   55.0448 H   0  0
   -5.4516  -32.8798   53.3734 H   0  0
   -6.9857  -31.5886   54.5279 H   0  0
   -6.5162  -32.5251   56.1997 H   0  0
   -5.5076  -29.0247   55.4845 H   0  0
   -5.0011  -27.0836   54.0186 H   0  0
   -3.7527  -25.8047   53.3277 H   0  0
   -4.6632  -25.2816   51.9039 H   0  0
   -2.6474  -23.9105   52.1392 H   0  0
   -1.6300  -25.3404   52.2212 H   0  0
  1  2  1  0
  2  3  1  0
  2  4  1  0
  4  5  2  0
  4  9  1  0
  5  6  1  0
  6  7  2  0
  7  8  1  0
  8  9  2  0
  9 10  1  0
 10 11  1  0
 10 19  1  0
 10 35  1  0
 11 12  2  0
 11 13  1  0
 13 14  1  0
 14 15  1  0
 14 18  1  0
 15 16  1  0
 16 17  1  0
 17 18  1  0
 19 20  1  0
 20 21  1  0
 21 22  1  0
 21 34  1  0
 22 23  2  0
 22 33  1  0
 23 24  1  0
 24 25  2  0
 25 26  1  0
 25 32  1  0
 26 27  1  0
 26 30  1  0
 26 31  1  0
 27 28  2  0
 27 29  1  0
 30 31  1  0
 32 33  2  0
 34 35  1  0
  1 36  1  0
  1 37  1  0
  1 38  1  0
  2 39  1  0
  3 40  1  0
  3 41  1  0
  3 42  1  0
  5 43  1  0
  6 44  1  0
  7 45  1  0
  8 46  1  0
 13 47  1  0
 14 48  1  0
 15 49  1  0
 16 50  1  0
 16 51  1  0
 17 52  1  0
 17 53  1  0
 18 54  1  0
 19 55  1  0
 19 56  1  0
 20 57  1  0
 20 58  1  0
 23 59  1  0
 24 60  1  0
 29 61  1  0
 30 62  1  0
 30 63  1  0
 31 64  1  0
 31 65  1  0
 32 66  1  0
 33 67  1  0
 34 68  1  0
 34 69  1  0
 35 70  1  0
 35 71  1  0
M  END
> <Name>
Molecule

> <AbsoluteEnergy>
59.1041

> <Clean Energy>
225.967

> <ConfNumber>
50

> <MOL_NUMBER>
5

> <RelativeEnergy>
10.802

> <POSE_NUMBER>
53

> <LibDockScore>
117.7726

> <HotSpots>
-4.93,-23.52,47.59,A,26,5
4.07,-23.72,49.78,A,37,16
-4.13,-30.52,57.38,P,71,28

$$$$
Molecule
  SciTegic05072616053D

 71 75  0  0  0  0            999 V2000
   -1.0293  -24.1875   46.7380 C   0  0  0  1  0  0
   -2.2400  -24.9930   47.2865 C   0  0  0  1  0  0
   -2.6038  -26.1701   46.3455 C   0  0  0  1  0  0
   -3.4352  -24.0912   47.5360 C   0  0  0  1  0  0
   -4.0616  -23.5447   46.3899 C   0  0  0  1  0  0
   -5.1964  -22.7218   46.4906 C   0  0  0  1  0  0
   -5.7204  -22.4163   47.7564 C   0  0  0  1  0  0
   -5.0968  -22.9262   48.9091 C   0  0  0  1  0  0
   -3.9525  -23.7762   48.8435 C   0  0  0  1  0  0
   -3.3477  -24.3582   50.1293 C   0  0  0  1  0  0
   -1.9303  -23.8301   50.3818 C   0  0  0  1  0  0
   -1.6163  -22.6924   50.0977 O   0  0  0  1  0  0
   -0.9878  -24.6819   50.9308 N   0  0  0  1  0  0
    0.3368  -24.2255   51.4561 C   0  0  0  1  0  0
    0.2823  -23.4667   52.7100 N   0  0  0  1  0  0
    0.1694  -24.4520   53.7853 C   0  0  0  1  0  0
    0.7813  -25.7234   53.2115 C   0  0  0  1  0  0
    1.1677  -25.3680   51.8416 N   0  0  0  1  0  0
   -4.1121  -23.9586   51.4433 C   0  0  0  1  0  0
   -5.3800  -24.7922   51.7450 C   0  0  0  1  0  0
   -5.0866  -26.2557   51.7816 N   0  0  0  1  0  0
   -6.0269  -27.1819   52.2396 C   0  0  0  1  0  0
   -7.3506  -26.7943   52.5797 C   0  0  0  1  0  0
   -8.3279  -27.7694   52.8625 C   0  0  0  1  0  0
   -7.9965  -29.1271   52.8105 C   0  0  0  1  0  0
   -9.0960  -30.1514   52.8786 C   0  0  0  1  0  0
   -9.2438  -30.7456   51.4786 C   0  0  0  1  0  0
   -9.8893  -30.1504   50.6440 O   0  0  0  1  0  0
   -8.6061  -31.8968   51.2127 O   0  0  0  1  0  0
  -10.3035  -29.9574   53.7738 C   0  0  0  1  0  0
   -9.3019  -31.0239   54.1031 C   0  0  0  1  0  0
   -6.6558  -29.5189   52.6397 C   0  0  0  1  0  0
   -5.6768  -28.5497   52.3567 C   0  0  0  1  0  0
   -3.7579  -26.6816   51.2695 C   0  0  0  1  0  0
   -3.4118  -25.9218   49.9686 C   0  0  0  1  0  0
   -1.2844  -23.8002   45.7516 H   0  0
   -0.1751  -24.8583   46.6463 H   0  0
   -0.7869  -23.3647   47.4105 H   0  0
   -1.9468  -25.4189   48.2460 H   0  0
   -1.7388  -26.8273   46.2565 H   0  0
   -2.8482  -25.7692   45.3618 H   0  0
   -3.4537  -26.7240   46.7441 H   0  0
   -3.6533  -23.7679   45.4042 H   0  0
   -5.6666  -22.3234   45.5915 H   0  0
   -6.6060  -21.7871   47.8454 H   0  0
   -5.5015  -22.6631   49.8864 H   0  0
   -1.2193  -25.7253   50.9825 H   0  0
    0.7168  -23.6177   50.6350 H   0  0
   -0.5752  -22.8267   52.7123 H   0  0
    0.7380  -24.1245   54.6557 H   0  0
   -0.8787  -24.6214   54.0320 H   0  0
    1.6622  -26.0068   53.7875 H   0  0
    0.0395  -26.5219   53.1959 H   0  0
    0.9794  -26.1923   51.1859 H   0  0
   -4.3949  -22.9080   51.3778 H   0  0
   -3.4276  -24.0498   52.2866 H   0  0
   -6.1283  -24.5981   50.9765 H   0  0
   -5.7884  -24.4865   52.7082 H   0  0
   -7.6118  -25.7369   52.6221 H   0  0
   -9.3421  -27.4655   53.1218 H   0  0
   -8.9497  -32.5819   51.9305 H   0  0
  -11.2053  -30.3748   53.3258 H   0  0
  -10.1891  -29.0838   54.4156 H   0  0
   -8.6477  -30.7247   54.9220 H   0  0
   -9.6632  -32.0155   53.8307 H   0  0
   -6.3772  -30.5691   52.7264 H   0  0
   -4.6383  -28.8539   52.2261 H   0  0
   -3.7742  -27.7526   51.0677 H   0  0
   -2.9974  -26.4731   52.0220 H   0  0
   -2.4492  -26.2779   49.6015 H   0  0
   -4.1569  -26.1668   49.2117 H   0  0
  1  2  1  0
  2  3  1  0
  2  4  1  0
  4  5  2  0
  4  9  1  0
  5  6  1  0
  6  7  2  0
  7  8  1  0
  8  9  2  0
  9 10  1  0
 10 11  1  0
 10 19  1  0
 10 35  1  0
 11 12  2  0
 11 13  1  0
 13 14  1  0
 14 15  1  0
 14 18  1  0
 15 16  1  0
 16 17  1  0
 17 18  1  0
 19 20  1  0
 20 21  1  0
 21 22  1  0
 21 34  1  0
 22 23  2  0
 22 33  1  0
 23 24  1  0
 24 25  2  0
 25 26  1  0
 25 32  1  0
 26 27  1  0
 26 30  1  0
 26 31  1  0
 27 28  2  0
 27 29  1  0
 30 31  1  0
 32 33  2  0
 34 35  1  0
  1 36  1  0
  1 37  1  0
  1 38  1  0
  2 39  1  0
  3 40  1  0
  3 41  1  0
  3 42  1  0
  5 43  1  0
  6 44  1  0
  7 45  1  0
  8 46  1  0
 13 47  1  0
 14 48  1  0
 15 49  1  0
 16 50  1  0
 16 51  1  0
 17 52  1  0
 17 53  1  0
 18 54  1  0
 19 55  1  0
 19 56  1  0
 20 57  1  0
 20 58  1  0
 23 59  1  0
 24 60  1  0
 29 61  1  0
 30 62  1  0
 30 63  1  0
 31 64  1  0
 31 65  1  0
 32 66  1  0
 33 67  1  0
 34 68  1  0
 34 69  1  0
 35 70  1  0
 35 71  1  0
M  END
> <Name>
Molecule

> <AbsoluteEnergy>
62.488

> <Clean Energy>
225.967

> <ConfNumber>
76

> <MOL_NUMBER>
5

> <RelativeEnergy>
14.1859

> <POSE_NUMBER>
54

> <LibDockScore>
117.7248

> <HotSpots>
-0.93,-23.32,46.98,A,25,1
-5.53,-22.92,48.98,A,33,8
0.47,-23.32,53.78,A,67,16

$$$$
Molecule
  SciTegic05072616053D

 71 75  0  0  0  0            999 V2000
   -1.8296  -24.9336   46.8300 C   0  0  0  1  0  0
   -3.2769  -25.3727   47.1282 C   0  0  0  1  0  0
   -3.9998  -25.6199   45.7825 C   0  0  0  1  0  0
   -3.9785  -24.4280   48.0931 C   0  0  0  1  0  0
   -5.1013  -23.7197   47.5911 C   0  0  0  1  0  0
   -5.8242  -22.8202   48.3773 C   0  0  0  1  0  0
   -5.4361  -22.5913   49.6933 C   0  0  0  1  0  0
   -4.3283  -23.2632   50.2162 C   0  0  0  1  0  0
   -3.5720  -24.2024   49.4620 C   0  0  0  1  0  0
   -2.3628  -24.8551   50.1818 C   0  0  0  1  0  0
   -1.1007  -24.0278   49.8856 C   0  0  0  1  0  0
   -1.1450  -23.0845   49.1250 O   0  0  0  1  0  0
    0.1074  -24.3410   50.4740 N   0  0  0  1  0  0
    1.3530  -23.6435   50.0747 C   0  0  0  1  0  0
    2.4781  -24.0393   50.9171 N   0  0  0  1  0  0
    3.6520  -23.8130   50.0968 C   0  0  0  1  0  0
    3.1889  -24.1197   48.6828 C   0  0  0  1  0  0
    1.7356  -23.9978   48.7060 N   0  0  0  1  0  0
   -2.1329  -26.3668   49.8696 C   0  0  0  1  0  0
   -3.3491  -27.2496   50.2199 C   0  0  0  1  0  0
   -3.7092  -27.1225   51.6661 N   0  0  0  1  0  0
   -3.9959  -28.2236   52.4706 C   0  0  0  1  0  0
   -3.4888  -29.5097   52.1725 C   0  0  0  1  0  0
   -3.7840  -30.6074   52.9985 C   0  0  0  1  0  0
   -4.5868  -30.4395   54.1402 C   0  0  0  1  0  0
   -4.8954  -31.6142   55.0373 C   0  0  0  1  0  0
   -4.0183  -31.6525   56.2771 C   0  0  0  1  0  0
   -4.3229  -30.9791   57.2346 O   0  0  0  1  0  0
   -2.9352  -32.4276   56.2769 O   0  0  0  1  0  0
   -5.3167  -32.9383   54.4193 C   0  0  0  1  0  0
   -6.3315  -32.1011   55.1583 C   0  0  0  1  0  0
   -5.0980  -29.1672   54.4462 C   0  0  0  1  0  0
   -4.8078  -28.0712   53.6185 C   0  0  0  1  0  0
   -3.7545  -25.7314   52.2089 C   0  0  0  1  0  0
   -2.5437  -24.8963   51.7393 C   0  0  0  1  0  0
   -1.8320  -24.0128   46.2467 H   0  0
   -1.3086  -25.7162   46.2784 H   0  0
   -1.3105  -24.7565   47.7720 H   0  0
   -3.2904  -26.3175   47.6716 H   0  0
   -3.4912  -26.4064   45.2250 H   0  0
   -4.0145  -24.7031   45.1932 H   0  0
   -5.0252  -25.9312   45.9816 H   0  0
   -5.4093  -23.8832   46.5584 H   0  0
   -6.6877  -22.3004   47.9622 H   0  0
   -5.9941  -21.8904   50.3142 H   0  0
   -4.0313  -23.0591   51.2449 H   0  0
    0.1457  -25.0980   51.2292 H   0  0
    1.1455  -22.5777   50.1703 H   0  0
    2.5169  -23.4238   51.7915 H   0  0
    4.4508  -24.4965   50.3844 H   0  0
    3.9667  -22.7719   50.1691 H   0  0
    3.6122  -23.3945   47.9878 H   0  0
    3.4727  -25.1362   48.4102 H   0  0
    1.2899  -24.9322   48.4356 H   0  0
   -1.9086  -26.4794   48.8089 H   0  0
   -1.2680  -26.7182   50.4322 H   0  0
   -4.2006  -26.9466   49.6106 H   0  0
   -3.1141  -28.2909   49.9996 H   0  0
   -2.8619  -29.6510   51.2921 H   0  0
   -3.3889  -31.5932   52.7530 H   0  0
   -2.3720  -32.1113   55.4491 H   0  0
   -4.9803  -33.7845   55.0184 H   0  0
   -5.4361  -32.8550   53.3391 H   0  0
   -6.9926  -31.5716   54.4722 H   0  0
   -6.5356  -32.5000   56.1519 H   0  0
   -5.7221  -29.0306   55.3293 H   0  0
   -5.2136  -27.0897   53.8638 H   0  0
   -3.7599  -25.7716   53.2981 H   0  0
   -4.6730  -25.2477   51.8764 H   0  0
   -2.6566  -23.8770   52.1086 H   0  0
   -1.6392  -25.3070   52.1880 H   0  0
  1  2  1  0
  2  3  1  0
  2  4  1  0
  4  5  2  0
  4  9  1  0
  5  6  1  0
  6  7  2  0
  7  8  1  0
  8  9  2  0
  9 10  1  0
 10 11  1  0
 10 19  1  0
 10 35  1  0
 11 12  2  0
 11 13  1  0
 13 14  1  0
 14 15  1  0
 14 18  1  0
 15 16  1  0
 16 17  1  0
 17 18  1  0
 19 20  1  0
 20 21  1  0
 21 22  1  0
 21 34  1  0
 22 23  2  0
 22 33  1  0
 23 24  1  0
 24 25  2  0
 25 26  1  0
 25 32  1  0
 26 27  1  0
 26 30  1  0
 26 31  1  0
 27 28  2  0
 27 29  1  0
 30 31  1  0
 32 33  2  0
 34 35  1  0
  1 36  1  0
  1 37  1  0
  1 38  1  0
  2 39  1  0
  3 40  1  0
  3 41  1  0
  3 42  1  0
  5 43  1  0
  6 44  1  0
  7 45  1  0
  8 46  1  0
 13 47  1  0
 14 48  1  0
 15 49  1  0
 16 50  1  0
 16 51  1  0
 17 52  1  0
 17 53  1  0
 18 54  1  0
 19 55  1  0
 19 56  1  0
 20 57  1  0
 20 58  1  0
 23 59  1  0
 24 60  1  0
 29 61  1  0
 30 62  1  0
 30 63  1  0
 31 64  1  0
 31 65  1  0
 32 66  1  0
 33 67  1  0
 34 68  1  0
 34 69  1  0
 35 70  1  0
 35 71  1  0
M  END
> <Name>
Molecule

> <AbsoluteEnergy>
59.1041

> <Clean Energy>
225.967

> <ConfNumber>
50

> <MOL_NUMBER>
5

> <RelativeEnergy>
10.802

> <POSE_NUMBER>
55

> <LibDockScore>
117.6621

> <HotSpots>
-6.13,-22.12,49.98,A,41,6
2.67,-23.92,48.98,A,32,17
-3.33,-33.72,54.98,P,58,29

$$$$
Molecule
  SciTegic05072616053D

 71 75  0  0  0  0            999 V2000
   -1.2250  -23.5434   46.9157 C   0  0  0  1  0  0
   -2.2123  -24.5914   47.4689 C   0  0  0  1  0  0
   -2.5471  -25.6542   46.4037 C   0  0  0  1  0  0
   -3.4642  -23.9579   48.0421 C   0  0  0  1  0  0
   -4.2844  -23.2478   47.1342 C   0  0  0  1  0  0
   -5.4606  -22.6198   47.5561 C   0  0  0  1  0  0
   -5.8249  -22.6698   48.9040 C   0  0  0  1  0  0
   -5.0246  -23.3611   49.8220 C   0  0  0  1  0  0
   -3.8439  -24.0370   49.4257 C   0  0  0  1  0  0
   -3.0132  -24.8111   50.4618 C   0  0  0  1  0  0
   -1.6429  -24.1229   50.6264 C   0  0  0  1  0  0
   -1.4953  -22.9737   50.2728 O   0  0  0  1  0  0
   -0.5625  -24.7869   51.1728 N   0  0  0  1  0  0
    0.8018  -24.2012   51.1456 C   0  0  0  1  0  0
    1.7912  -25.0718   51.7921 N   0  0  0  1  0  0
    3.0555  -24.6020   51.2514 C   0  0  0  1  0  0
    2.7389  -24.1718   49.8261 C   0  0  0  1  0  0
    1.2894  -24.0035   49.7777 N   0  0  0  1  0  0
   -2.9341  -26.3179   50.0119 C   0  0  0  1  0  0
   -4.2168  -27.1124   50.2854 C   0  0  0  1  0  0
   -4.5346  -27.0664   51.7308 N   0  0  0  1  0  0
   -4.5486  -28.1971   52.5365 C   0  0  0  1  0  0
   -5.4293  -28.2911   53.6349 C   0  0  0  1  0  0
   -5.4560  -29.4483   54.4311 C   0  0  0  1  0  0
   -4.6046  -30.5295   54.1415 C   0  0  0  1  0  0
   -4.6755  -31.7969   54.9652 C   0  0  0  1  0  0
   -3.8501  -31.7503   56.2439 C   0  0  0  1  0  0
   -2.7977  -32.3482   56.2935 O   0  0  0  1  0  0
   -4.3204  -31.0533   57.2807 O   0  0  0  1  0  0
   -4.8227  -33.1194   54.2303 C   0  0  0  1  0  0
   -5.9846  -32.5689   55.0170 C   0  0  0  1  0  0
   -3.6960  -30.4252   53.0723 C   0  0  0  1  0  0
   -3.6721  -29.2705   52.2733 C   0  0  0  1  0  0
   -4.7999  -25.7068   52.2451 C   0  0  0  1  0  0
   -3.5959  -24.7818   51.9297 C   0  0  0  1  0  0
   -1.6747  -23.0606   46.0481 H   0  0
   -0.3108  -24.0504   46.6070 H   0  0
   -0.9981  -22.7995   47.6794 H   0  0
   -1.7147  -25.0950   48.2977 H   0  0
   -1.6247  -26.1482   46.0982 H   0  0
   -2.9886  -25.1583   45.5393 H   0  0
   -3.2450  -26.3870   46.8088 H   0  0
   -3.9939  -23.1890   46.0853 H   0  0
   -6.0895  -22.0943   46.8375 H   0  0
   -6.7330  -22.1702   49.2414 H   0  0
   -5.3183  -23.3798   50.8715 H   0  0
   -0.7117  -25.7447   51.6258 H   0  0
    0.7039  -23.2527   51.6736 H   0  0
    1.7683  -24.9345   52.8530 H   0  0
    3.7846  -25.4122   51.2422 H   0  0
    3.4153  -23.7488   51.8265 H   0  0
    3.0472  -24.9478   49.1255 H   0  0
    3.2315  -23.2248   49.6057 H   0  0
    1.0495  -23.0155   49.4441 H   0  0
   -2.7181  -26.3565   48.9442 H   0  0
   -2.1057  -26.7993   50.5315 H   0  0
   -5.0406  -26.6775   49.7195 H   0  0
   -4.0752  -28.1488   49.9788 H   0  0
   -6.0942  -27.4593   53.8675 H   0  0
   -6.1401  -29.5084   55.2776 H   0  0
   -5.2682  -31.4585   57.4807 H   0  0
   -4.3246  -33.9302   54.7619 H   0  0
   -4.9542  -32.9685   53.1588 H   0  0
   -6.7372  -32.1243   54.3658 H   0  0
   -6.1067  -33.0847   55.9695 H   0  0
   -3.0077  -31.2441   52.8632 H   0  0
   -2.9699  -29.2031   51.4423 H   0  0
   -4.9508  -25.7491   53.3238 H   0  0
   -5.6967  -25.3083   51.7707 H   0  0
   -3.8851  -23.7571   52.1632 H   0  0
   -2.7901  -25.0255   52.6221 H   0  0
  1  2  1  0
  2  3  1  0
  2  4  1  0
  4  5  2  0
  4  9  1  0
  5  6  1  0
  6  7  2  0
  7  8  1  0
  8  9  2  0
  9 10  1  0
 10 11  1  0
 10 19  1  0
 10 35  1  0
 11 12  2  0
 11 13  1  0
 13 14  1  0
 14 15  1  0
 14 18  1  0
 15 16  1  0
 16 17  1  0
 17 18  1  0
 19 20  1  0
 20 21  1  0
 21 22  1  0
 21 34  1  0
 22 23  2  0
 22 33  1  0
 23 24  1  0
 24 25  2  0
 25 26  1  0
 25 32  1  0
 26 27  1  0
 26 30  1  0
 26 31  1  0
 27 28  2  0
 27 29  1  0
 30 31  1  0
 32 33  2  0
 34 35  1  0
  1 36  1  0
  1 37  1  0
  1 38  1  0
  2 39  1  0
  3 40  1  0
  3 41  1  0
  3 42  1  0
  5 43  1  0
  6 44  1  0
  7 45  1  0
  8 46  1  0
 13 47  1  0
 14 48  1  0
 15 49  1  0
 16 50  1  0
 16 51  1  0
 17 52  1  0
 17 53  1  0
 18 54  1  0
 19 55  1  0
 19 56  1  0
 20 57  1  0
 20 58  1  0
 23 59  1  0
 24 60  1  0
 29 61  1  0
 30 62  1  0
 30 63  1  0
 31 64  1  0
 31 65  1  0
 32 66  1  0
 33 67  1  0
 34 68  1  0
 34 69  1  0
 35 70  1  0
 35 71  1  0
M  END
> <Name>
Molecule

> <AbsoluteEnergy>
54.5178

> <Clean Energy>
225.967

> <ConfNumber>
32

> <MOL_NUMBER>
5

> <RelativeEnergy>
6.21564

> <POSE_NUMBER>
56

> <LibDockScore>
117.1637

> <HotSpots>
-0.93,-23.32,46.98,A,25,1
-5.53,-22.92,48.98,A,33,7
-3.33,-32.52,56.19,P,67,28

$$$$
Molecule
  SciTegic05072616053D

 71 75  0  0  0  0            999 V2000
   -1.3327  -25.3377   46.5574 C   0  0  0  1  0  0
   -2.7935  -25.7283   46.8567 C   0  0  0  1  0  0
   -3.4775  -26.1199   45.5250 C   0  0  0  1  0  0
   -3.5133  -24.6748   47.6861 C   0  0  0  1  0  0
   -4.5966  -24.0015   47.0635 C   0  0  0  1  0  0
   -5.3310  -23.0113   47.7191 C   0  0  0  1  0  0
   -4.9942  -22.6537   49.0205 C   0  0  0  1  0  0
   -3.9260  -23.2884   49.6594 C   0  0  0  1  0  0
   -3.1605  -24.3154   49.0412 C   0  0  0  1  0  0
   -1.9990  -24.9123   49.8784 C   0  0  0  1  0  0
   -0.7287  -24.0813   49.6318 C   0  0  0  1  0  0
   -0.7418  -23.1483   48.8574 O   0  0  0  1  0  0
    0.4515  -24.3794   50.2813 N   0  0  0  1  0  0
    1.6793  -23.5865   50.0330 C   0  0  0  1  0  0
    2.7506  -23.9629   50.9510 N   0  0  0  1  0  0
    3.9739  -23.6192   50.2526 C   0  0  0  1  0  0
    3.6554  -23.8698   48.7885 C   0  0  0  1  0  0
    2.2007  -23.8366   48.6875 N   0  0  0  1  0  0
   -1.7291  -26.4340   49.6611 C   0  0  0  1  0  0
   -2.9568  -27.3170   49.9678 C   0  0  0  1  0  0
   -3.4223  -27.1233   51.3760 N   0  0  0  1  0  0
   -3.7535  -28.1870   52.2130 C   0  0  0  1  0  0
   -3.3808  -29.5157   51.9034 C   0  0  0  1  0  0
   -3.7187  -30.5752   52.7623 C   0  0  0  1  0  0
   -4.4305  -30.3262   53.9487 C   0  0  0  1  0  0
   -4.7841  -31.4605   54.8805 C   0  0  0  1  0  0
   -3.9703  -31.4419   56.1632 C   0  0  0  1  0  0
   -4.3195  -30.7236   57.0716 O   0  0  0  1  0  0
   -2.8918  -32.2181   56.2538 O   0  0  0  1  0  0
   -5.1741  -32.8116   54.3017 C   0  0  0  1  0  0
   -6.2245  -31.9443   54.9509 C   0  0  0  1  0  0
   -4.8079  -29.0108   54.2666 C   0  0  0  1  0  0
   -4.4753  -27.9527   53.4063 C   0  0  0  1  0  0
   -3.5235  -25.7076   51.8424 C   0  0  0  1  0  0
   -2.2919  -24.8783   51.4190 C   0  0  0  1  0  0
   -1.3062  -24.4887   45.8743 H   0  0
   -0.8043  -26.1819   46.1144 H   0  0
   -0.8408  -25.0597   47.4895 H   0  0
   -2.8349  -26.6056   47.5023 H   0  0
   -2.9613  -26.9685   45.0761 H   0  0
   -3.4632  -25.2754   44.8360 H   0  0
   -4.5122  -26.3983   45.7250 H   0  0
   -4.8639  -24.2660   46.0404 H   0  0
   -6.1634  -22.5213   47.2140 H   0  0
   -5.5615  -21.8813   49.5398 H   0  0
   -3.6686  -22.9838   50.6738 H   0  0
    0.4810  -25.1944   50.9740 H   0  0
    1.3959  -22.5424   50.1658 H   0  0
    2.6738  -23.3984   51.8567 H   0  0
    4.7875  -24.2694   50.5742 H   0  0
    4.2132  -22.5672   50.4079 H   0  0
    4.0893  -23.0812   48.1737 H   0  0
    4.0269  -24.8498   48.4890 H   0  0
    1.8414  -24.7786   48.3290 H   0  0
   -1.4272  -26.5960   48.6264 H   0  0
   -0.9031  -26.7433   50.3015 H   0  0
   -3.7655  -27.0583   49.2843 H   0  0
   -2.6940  -28.3642   49.8184 H   0  0
   -2.8252  -29.7202   50.9882 H   0  0
   -3.4277  -31.5943   52.5076 H   0  0
   -2.2866  -31.9422   55.4414 H   0  0
   -4.8684  -33.6297   54.9540 H   0  0
   -5.2391  -32.7766   53.2142 H   0  0
   -6.8502  -31.4472   54.2096 H   0  0
   -6.4783  -32.2991   55.9498 H   0  0
   -5.3609  -28.8112   55.1845 H   0  0
   -4.7774  -26.9369   53.6614 H   0  0
   -3.6074  -25.6933   52.9291 H   0  0
   -4.4211  -25.2555   51.4205 H   0  0
   -2.4435  -23.8437   51.7268 H   0  0
   -1.4175  -25.2519   51.9519 H   0  0
  1  2  1  0
  2  3  1  0
  2  4  1  0
  4  5  2  0
  4  9  1  0
  5  6  1  0
  6  7  2  0
  7  8  1  0
  8  9  2  0
  9 10  1  0
 10 11  1  0
 10 19  1  0
 10 35  1  0
 11 12  2  0
 11 13  1  0
 13 14  1  0
 14 15  1  0
 14 18  1  0
 15 16  1  0
 16 17  1  0
 17 18  1  0
 19 20  1  0
 20 21  1  0
 21 22  1  0
 21 34  1  0
 22 23  2  0
 22 33  1  0
 23 24  1  0
 24 25  2  0
 25 26  1  0
 25 32  1  0
 26 27  1  0
 26 30  1  0
 26 31  1  0
 27 28  2  0
 27 29  1  0
 30 31  1  0
 32 33  2  0
 34 35  1  0
  1 36  1  0
  1 37  1  0
  1 38  1  0
  2 39  1  0
  3 40  1  0
  3 41  1  0
  3 42  1  0
  5 43  1  0
  6 44  1  0
  7 45  1  0
  8 46  1  0
 13 47  1  0
 14 48  1  0
 15 49  1  0
 16 50  1  0
 16 51  1  0
 17 52  1  0
 17 53  1  0
 18 54  1  0
 19 55  1  0
 19 56  1  0
 20 57  1  0
 20 58  1  0
 23 59  1  0
 24 60  1  0
 29 61  1  0
 30 62  1  0
 30 63  1  0
 31 64  1  0
 31 65  1  0
 32 66  1  0
 33 67  1  0
 34 68  1  0
 34 69  1  0
 35 70  1  0
 35 71  1  0
M  END
> <Name>
Molecule

> <AbsoluteEnergy>
59.1041

> <Clean Energy>
225.967

> <ConfNumber>
50

> <MOL_NUMBER>
5

> <RelativeEnergy>
10.802

> <POSE_NUMBER>
57

> <LibDockScore>
117.0486

> <HotSpots>
-4.93,-23.52,47.59,A,26,6
4.07,-23.72,49.78,A,37,17
-3.33,-32.52,56.19,P,67,29

$$$$
Molecule
  SciTegic05072616053D

 71 75  0  0  0  0            999 V2000
   -3.3229  -26.6862   45.8413 C   0  0  0  1  0  0
   -2.7192  -25.3413   46.2917 C   0  0  0  1  0  0
   -3.7284  -24.4160   46.9862 C   0  0  0  1  0  0
   -1.3129  -25.4421   46.8797 C   0  0  0  1  0  0
   -0.2877  -25.1167   45.9557 C   0  0  0  1  0  0
    1.0632  -25.1250   46.3075 C   0  0  0  1  0  0
    1.4314  -25.4644   47.6063 C   0  0  0  1  0  0
    0.4489  -25.8032   48.5419 C   0  0  0  1  0  0
   -0.9384  -25.8223   48.2234 C   0  0  0  1  0  0
   -1.9282  -26.2437   49.3311 C   0  0  0  1  0  0
   -2.7123  -25.0137   49.8189 C   0  0  0  1  0  0
   -2.1185  -23.9886   50.0739 O   0  0  0  1  0  0
   -4.0837  -25.0376   49.9746 N   0  0  0  1  0  0
   -4.8078  -23.9199   50.6237 C   0  0  0  1  0  0
   -4.7399  -22.7119   49.7983 N   0  0  0  1  0  0
   -6.0733  -22.1219   49.7776 C   0  0  0  1  0  0
   -6.9083  -22.9586   50.7305 C   0  0  0  1  0  0
   -6.2266  -24.2372   50.7714 N   0  0  0  1  0  0
   -2.7953  -27.4536   48.8210 C   0  0  0  1  0  0
   -2.9491  -28.6477   49.7893 C   0  0  0  1  0  0
   -3.2029  -28.1881   51.1803 N   0  0  0  1  0  0
   -4.3463  -28.5163   51.9106 C   0  0  0  1  0  0
   -4.3854  -28.3041   53.3089 C   0  0  0  1  0  0
   -5.5317  -28.6196   54.0557 C   0  0  0  1  0  0
   -6.6635  -29.1583   53.4208 C   0  0  0  1  0  0
   -7.9024  -29.4942   54.2238 C   0  0  0  1  0  0
   -8.3991  -28.3466   55.1122 C   0  0  0  1  0  0
   -9.3098  -27.6444   54.7353 O   0  0  0  1  0  0
   -7.8311  -28.1195   56.2979 O   0  0  0  1  0  0
   -8.0661  -30.9230   54.7229 C   0  0  0  1  0  0
   -8.9289  -30.4221   53.5902 C   0  0  0  1  0  0
   -6.6393  -29.3775   52.0330 C   0  0  0  1  0  0
   -5.4952  -29.0560   51.2850 C   0  0  0  1  0  0
   -2.1432  -27.3061   51.7398 C   0  0  0  1  0  0
   -1.2124  -26.7477   50.6394 C   0  0  0  1  0  0
   -4.1474  -26.4678   45.1626 H   0  0
   -3.7254  -27.1806   46.7254 H   0  0
   -2.5763  -27.3131   45.3538 H   0  0
   -2.5048  -24.7808   45.3818 H   0  0
   -4.1241  -24.9484   47.8511 H   0  0
   -4.5461  -24.2356   46.2884 H   0  0
   -3.2640  -23.4775   47.2889 H   0  0
   -0.5640  -24.8509   44.9354 H   0  0
    1.8240  -24.8676   45.5706 H   0  0
    2.4829  -25.4661   47.8933 H   0  0
    0.7574  -26.0628   49.5546 H   0  0
   -4.6360  -25.8821   49.6186 H   0  0
   -4.3381  -23.7617   51.5945 H   0  0
   -4.4435  -22.9690   48.8029 H   0  0
   -6.0306  -21.0910   50.1292 H   0  0
   -6.4911  -22.1770   48.7724 H   0  0
   -7.9168  -23.0826   50.3360 H   0  0
   -6.9145  -22.5037   51.7210 H   0  0
   -6.4004  -24.7148   51.7130 H   0  0
   -2.3635  -27.8206   47.8899 H   0  0
   -3.7899  -27.0842   48.5710 H   0  0
   -2.0379  -29.2455   49.7711 H   0  0
   -3.7809  -29.2710   49.4613 H   0  0
   -3.5128  -27.8896   53.8138 H   0  0
   -5.5437  -28.4460   55.1317 H   0  0
   -6.8119  -27.9909   56.0805 H   0  0
   -8.6165  -30.9576   55.6631 H   0  0
   -7.2629  -31.5661   54.3631 H   0  0
   -8.5864  -30.7989   52.6265 H   0  0
   -9.9392  -30.1890   53.9265 H   0  0
   -7.5125  -29.7989   51.5349 H   0  0
   -5.4920  -29.2244   50.2081 H   0  0
   -1.5483  -27.8725   52.4562 H   0  0
   -2.6125  -26.4747   52.2657 H   0  0
   -0.6355  -25.9242   51.0602 H   0  0
   -0.4959  -27.5226   50.3669 H   0  0
  1  2  1  0
  2  3  1  0
  2  4  1  0
  4  5  2  0
  4  9  1  0
  5  6  1  0
  6  7  2  0
  7  8  1  0
  8  9  2  0
  9 10  1  0
 10 11  1  0
 10 19  1  0
 10 35  1  0
 11 12  2  0
 11 13  1  0
 13 14  1  0
 14 15  1  0
 14 18  1  0
 15 16  1  0
 16 17  1  0
 17 18  1  0
 19 20  1  0
 20 21  1  0
 21 22  1  0
 21 34  1  0
 22 23  2  0
 22 33  1  0
 23 24  1  0
 24 25  2  0
 25 26  1  0
 25 32  1  0
 26 27  1  0
 26 30  1  0
 26 31  1  0
 27 28  2  0
 27 29  1  0
 30 31  1  0
 32 33  2  0
 34 35  1  0
  1 36  1  0
  1 37  1  0
  1 38  1  0
  2 39  1  0
  3 40  1  0
  3 41  1  0
  3 42  1  0
  5 43  1  0
  6 44  1  0
  7 45  1  0
  8 46  1  0
 13 47  1  0
 14 48  1  0
 15 49  1  0
 16 50  1  0
 16 51  1  0
 17 52  1  0
 17 53  1  0
 18 54  1  0
 19 55  1  0
 19 56  1  0
 20 57  1  0
 20 58  1  0
 23 59  1  0
 24 60  1  0
 29 61  1  0
 30 62  1  0
 30 63  1  0
 31 64  1  0
 31 65  1  0
 32 66  1  0
 33 67  1  0
 34 68  1  0
 34 69  1  0
 35 70  1  0
 35 71  1  0
M  END
> <Name>
Molecule

> <AbsoluteEnergy>
65.0351

> <Clean Energy>
225.967

> <ConfNumber>
89

> <MOL_NUMBER>
5

> <RelativeEnergy>
16.733

> <POSE_NUMBER>
58

> <LibDockScore>
116.9467

> <HotSpots>
-2.93,-26.32,45.98,A,15,1
0.27,-24.92,46.38,A,19,5
-6.13,-22.12,49.98,A,41,16

$$$$
Molecule
  SciTegic05072616053D

 71 75  0  0  0  0            999 V2000
   -0.8473  -25.4914   47.7360 C   0  0  0  1  0  0
   -2.3039  -25.9597   47.5487 C   0  0  0  1  0  0
   -2.4045  -26.7122   46.2003 C   0  0  0  1  0  0
   -3.3038  -24.8303   47.7556 C   0  0  0  1  0  0
   -3.8976  -24.2817   46.5893 C   0  0  0  1  0  0
   -4.8196  -23.2347   46.6472 C   0  0  0  1  0  0
   -5.1670  -22.6925   47.8807 C   0  0  0  1  0  0
   -4.5949  -23.2032   49.0487 C   0  0  0  1  0  0
   -3.6703  -24.2842   49.0432 C   0  0  0  1  0  0
   -3.1251  -24.7366   50.4235 C   0  0  0  1  0  0
   -1.7620  -24.0688   50.6710 C   0  0  0  1  0  0
   -1.3317  -23.2383   49.9000 O   0  0  0  1  0  0
   -0.9988  -24.4029   51.7712 N   0  0  0  1  0  0
    0.3521  -23.8247   51.9714 C   0  0  0  1  0  0
    0.8305  -24.1100   53.3291 N   0  0  0  1  0  0
    2.1841  -24.6180   53.1981 C   0  0  0  1  0  0
    2.2055  -25.2502   51.8215 C   0  0  0  1  0  0
    1.2996  -24.4339   51.0273 N   0  0  0  1  0  0
   -3.0306  -26.2796   50.6319 C   0  0  0  1  0  0
   -4.3843  -26.9972   50.4566 C   0  0  0  1  0  0
   -5.4057  -26.4671   51.4120 N   0  0  0  1  0  0
   -6.2515  -27.3001   52.1431 C   0  0  0  1  0  0
   -7.3570  -26.7592   52.8402 C   0  0  0  1  0  0
   -8.2194  -27.5873   53.5767 C   0  0  0  1  0  0
   -7.9955  -28.9736   53.6286 C   0  0  0  1  0  0
   -8.9273  -29.8660   54.4129 C   0  0  0  1  0  0
  -10.0799  -30.3938   53.5754 C   0  0  0  1  0  0
  -11.1482  -30.5968   54.1057 O   0  0  0  1  0  0
   -9.8841  -30.6193   52.2774 O   0  0  0  1  0  0
   -9.1808  -29.5717   55.8837 C   0  0  0  1  0  0
   -8.3554  -30.7725   55.4922 C   0  0  0  1  0  0
   -6.8996  -29.5242   52.9421 C   0  0  0  1  0  0
   -6.0330  -28.6958   52.2108 C   0  0  0  1  0  0
   -5.4811  -24.9784   51.5306 C   0  0  0  1  0  0
   -4.0782  -24.3350   51.6038 C   0  0  0  1  0  0
   -0.5639  -24.8199   46.9255 H   0  0
   -0.1778  -26.3514   47.7514 H   0  0
   -0.7643  -24.9594   48.6837 H   0  0
   -2.5868  -26.6686   48.3269 H   0  0
   -1.7442  -27.5794   46.2066 H   0  0
   -2.1304  -26.0479   45.3808 H   0  0
   -3.4314  -27.0485   46.0569 H   0  0
   -3.6251  -24.6910   45.6165 H   0  0
   -5.2645  -22.8445   45.7318 H   0  0
   -5.8828  -21.8723   47.9356 H   0  0
   -4.8684  -22.7546   50.0037 H   0  0
   -1.3884  -25.0909   52.4921 H   0  0
    0.2877  -22.7483   51.8121 H   0  0
    0.8350  -23.2108   53.9090 H   0  0
    2.3801  -25.3729   53.9596 H   0  0
    2.9009  -23.7982   53.2447 H   0  0
    3.2121  -25.2061   51.4057 H   0  0
    1.8379  -26.2750   51.8741 H   0  0
    0.7723  -25.0501   50.3293 H   0  0
   -2.3176  -26.6907   49.9172 H   0  0
   -2.6518  -26.4803   51.6340 H   0  0
   -4.7387  -26.8514   49.4362 H   0  0
   -4.2513  -28.0649   50.6309 H   0  0
   -7.5419  -25.6856   52.8053 H   0  0
   -9.0653  -27.1533   54.1099 H   0  0
   -9.0748  -31.2869   52.2345 H   0  0
  -10.1902  -29.8566   56.1805 H   0  0
   -8.5561  -28.7529   56.2406 H   0  0
   -7.2904  -30.5946   55.6411 H   0  0
   -8.9246  -31.6980   55.5794 H   0  0
   -6.7216  -30.5990   52.9775 H   0  0
   -5.1819  -29.1336   51.6892 H   0  0
   -6.0400  -24.7188   52.4297 H   0  0
   -6.0129  -24.5780   50.6675 H   0  0
   -4.1905  -23.2508   51.6130 H   0  0
   -3.6106  -24.6207   52.5461 H   0  0
  1  2  1  0
  2  3  1  0
  2  4  1  0
  4  5  2  0
  4  9  1  0
  5  6  1  0
  6  7  2  0
  7  8  1  0
  8  9  2  0
  9 10  1  0
 10 11  1  0
 10 19  1  0
 10 35  1  0
 11 12  2  0
 11 13  1  0
 13 14  1  0
 14 15  1  0
 14 18  1  0
 15 16  1  0
 16 17  1  0
 17 18  1  0
 19 20  1  0
 20 21  1  0
 21 22  1  0
 21 34  1  0
 22 23  2  0
 22 33  1  0
 23 24  1  0
 24 25  2  0
 25 26  1  0
 25 32  1  0
 26 27  1  0
 26 30  1  0
 26 31  1  0
 27 28  2  0
 27 29  1  0
 30 31  1  0
 32 33  2  0
 34 35  1  0
  1 36  1  0
  1 37  1  0
  1 38  1  0
  2 39  1  0
  3 40  1  0
  3 41  1  0
  3 42  1  0
  5 43  1  0
  6 44  1  0
  7 45  1  0
  8 46  1  0
 13 47  1  0
 14 48  1  0
 15 49  1  0
 16 50  1  0
 16 51  1  0
 17 52  1  0
 17 53  1  0
 18 54  1  0
 19 55  1  0
 19 56  1  0
 20 57  1  0
 20 58  1  0
 23 59  1  0
 24 60  1  0
 29 61  1  0
 30 62  1  0
 30 63  1  0
 31 64  1  0
 31 65  1  0
 32 66  1  0
 33 67  1  0
 34 68  1  0
 34 69  1  0
 35 70  1  0
 35 71  1  0
M  END
> <Name>
Molecule

> <AbsoluteEnergy>
58.9509

> <Clean Energy>
225.967

> <ConfNumber>
47

> <MOL_NUMBER>
5

> <RelativeEnergy>
10.6487

> <POSE_NUMBER>
59

> <LibDockScore>
116.8671

> <HotSpots>
-2.93,-26.32,45.98,A,15,3
-5.13,-22.92,46.19,A,18,6
-5.93,-24.72,51.19,A,53,34

$$$$
Molecule
  SciTegic05072616053D

 71 75  0  0  0  0            999 V2000
   -1.4656  -23.4725   46.8020 C   0  0  0  1  0  0
   -2.4561  -24.4846   47.4133 C   0  0  0  1  0  0
   -2.9078  -25.5207   46.3651 C   0  0  0  1  0  0
   -3.6379  -23.8058   48.0766 C   0  0  0  1  0  0
   -4.4924  -23.0592   47.2317 C   0  0  0  1  0  0
   -5.6097  -22.3880   47.7386 C   0  0  0  1  0  0
   -5.8784  -22.4313   49.1090 C   0  0  0  1  0  0
   -5.0424  -23.1584   49.9654 C   0  0  0  1  0  0
   -3.9205  -23.8777   49.4835 C   0  0  0  1  0  0
   -3.0489  -24.6893   50.4553 C   0  0  0  1  0  0
   -1.6617  -24.0246   50.5651 C   0  0  0  1  0  0
   -1.5026  -22.8868   50.1809 O   0  0  0  1  0  0
   -0.5788  -24.6972   51.0957 N   0  0  0  1  0  0
    0.7919  -24.1289   51.0356 C   0  0  0  1  0  0
    1.7809  -24.9986   51.6839 N   0  0  0  1  0  0
    3.0421  -24.5551   51.1144 C   0  0  0  1  0  0
    2.7081  -24.1493   49.6859 C   0  0  0  1  0  0
    1.2602  -23.9643   49.6567 N   0  0  0  1  0  0
   -3.0161  -26.1852   49.9647 C   0  0  0  1  0  0
   -4.2948  -26.9686   50.2851 C   0  0  0  1  0  0
   -4.5363  -26.9551   51.7459 N   0  0  0  1  0  0
   -4.5256  -28.1057   52.5230 C   0  0  0  1  0  0
   -5.4516  -28.2769   53.5737 C   0  0  0  1  0  0
   -5.4515  -29.4544   54.3401 C   0  0  0  1  0  0
   -4.5276  -30.4790   54.0678 C   0  0  0  1  0  0
   -4.5669  -31.7697   54.8567 C   0  0  0  1  0  0
   -3.8224  -31.7062   56.1835 C   0  0  0  1  0  0
   -2.8098  -32.3555   56.3279 O   0  0  0  1  0  0
   -4.3177  -30.9374   57.1559 O   0  0  0  1  0  0
   -4.5872  -33.0789   54.0846 C   0  0  0  1  0  0
   -5.8256  -32.6218   54.8123 C   0  0  0  1  0  0
   -3.5757  -30.2968   53.0478 C   0  0  0  1  0  0
   -3.5784  -29.1219   52.2784 C   0  0  0  1  0  0
   -4.7539  -25.6055   52.3069 C   0  0  0  1  0  0
   -3.5541  -24.6895   51.9519 C   0  0  0  1  0  0
   -1.9529  -22.9618   45.9714 H   0  0
   -0.5970  -24.0137   46.4269 H   0  0
   -1.1556  -22.7472   47.5543 H   0  0
   -1.9247  -25.0177   48.2016 H   0  0
   -2.0302  -26.0492   45.9927 H   0  0
   -3.3861  -24.9973   45.5372 H   0  0
   -3.6066  -26.2282   46.8114 H   0  0
   -4.2757  -23.0061   46.1648 H   0  0
   -6.2672  -21.8342   47.0684 H   0  0
   -6.7397  -21.8985   49.5120 H   0  0
   -5.2608  -23.1715   51.0332 H   0  0
   -0.7306  -25.6490   51.5605 H   0  0
    0.7137  -23.1690   51.5460 H   0  0
    1.7763  -24.8401   52.7421 H   0  0
    3.7612  -25.3742   51.1100 H   0  0
    3.4211  -23.6952   51.6667 H   0  0
    2.9961  -24.9427   48.9962 H   0  0
    3.2084  -23.2129   49.4390 H   0  0
    1.0269  -22.9803   49.3072 H   0  0
   -2.8564  -26.1996   48.8866 H   0  0
   -2.1692  -26.6912   50.4283 H   0  0
   -5.1402  -26.5080   49.7740 H   0  0
   -4.1851  -27.9987   49.9459 H   0  0
   -6.1727  -27.4894   53.7925 H   0  0
   -6.1712  -29.5744   55.1499 H   0  0
   -5.2972  -31.2825   57.3109 H   0  0
   -4.0710  -33.8712   54.6267 H   0  0
   -4.6649  -32.9083   53.0108 H   0  0
   -6.5653  -32.2074   54.1273 H   0  0
   -5.9705  -33.1690   55.7438 H   0  0
   -2.8331  -31.0708   52.8540 H   0  0
   -2.8419  -28.9941   51.4851 H   0  0
   -4.8492  -25.6733   53.3906 H   0  0
   -5.6680  -25.1826   51.8901 H   0  0
   -3.8152  -23.6672   52.2255 H   0  0
   -2.7172  -24.9618   52.5950 H   0  0
  1  2  1  0
  2  3  1  0
  2  4  1  0
  4  5  2  0
  4  9  1  0
  5  6  1  0
  6  7  2  0
  7  8  1  0
  8  9  2  0
  9 10  1  0
 10 11  1  0
 10 19  1  0
 10 35  1  0
 11 12  2  0
 11 13  1  0
 13 14  1  0
 14 15  1  0
 14 18  1  0
 15 16  1  0
 16 17  1  0
 17 18  1  0
 19 20  1  0
 20 21  1  0
 21 22  1  0
 21 34  1  0
 22 23  2  0
 22 33  1  0
 23 24  1  0
 24 25  2  0
 25 26  1  0
 25 32  1  0
 26 27  1  0
 26 30  1  0
 26 31  1  0
 27 28  2  0
 27 29  1  0
 30 31  1  0
 32 33  2  0
 34 35  1  0
  1 36  1  0
  1 37  1  0
  1 38  1  0
  2 39  1  0
  3 40  1  0
  3 41  1  0
  3 42  1  0
  5 43  1  0
  6 44  1  0
  7 45  1  0
  8 46  1  0
 13 47  1  0
 14 48  1  0
 15 49  1  0
 16 50  1  0
 16 51  1  0
 17 52  1  0
 17 53  1  0
 18 54  1  0
 19 55  1  0
 19 56  1  0
 20 57  1  0
 20 58  1  0
 23 59  1  0
 24 60  1  0
 29 61  1  0
 30 62  1  0
 30 63  1  0
 31 64  1  0
 31 65  1  0
 32 66  1  0
 33 67  1  0
 34 68  1  0
 34 69  1  0
 35 70  1  0
 35 71  1  0
M  END
> <Name>
Molecule

> <AbsoluteEnergy>
54.5178

> <Clean Energy>
225.967

> <ConfNumber>
32

> <MOL_NUMBER>
5

> <RelativeEnergy>
6.21564

> <POSE_NUMBER>
60

> <LibDockScore>
116.7049

> <HotSpots>
-6.13,-22.12,49.98,A,41,7
3.07,-24.52,50.38,A,43,16
2.67,-23.92,48.98,A,32,17

$$$$
Molecule
  SciTegic05072616053D

 71 75  0  0  0  0            999 V2000
   -3.0912  -22.4303   51.2355 C   0  0  0  1  0  0
   -3.4675  -22.2940   49.7532 C   0  0  0  1  0  0
   -4.9187  -22.7135   49.4432 C   0  0  0  1  0  0
   -2.4403  -22.7316   48.7106 C   0  0  0  1  0  0
   -2.1732  -21.7462   47.7264 C   0  0  0  1  0  0
   -1.2430  -21.9459   46.7045 C   0  0  0  1  0  0
   -0.5474  -23.1496   46.6361 C   0  0  0  1  0  0
   -0.7943  -24.1503   47.5811 C   0  0  0  1  0  0
   -1.7451  -23.9965   48.6290 C   0  0  0  1  0  0
   -1.9579  -25.1840   49.5930 C   0  0  0  1  0  0
   -0.8424  -25.1939   50.6520 C   0  0  0  1  0  0
    0.2722  -24.8294   50.3471 O   0  0  0  1  0  0
   -1.0751  -25.6061   51.9514 N   0  0  0  1  0  0
   -0.0881  -25.4196   53.0431 C   0  0  0  1  0  0
    1.1669  -26.1131   52.7500 N   0  0  0  1  0  0
    2.2171  -25.2680   53.2853 C   0  0  0  1  0  0
    1.6699  -23.8625   53.1327 C   0  0  0  1  0  0
    0.2235  -23.9989   53.2457 N   0  0  0  1  0  0
   -1.7964  -26.5833   48.8909 C   0  0  0  1  0  0
   -2.1423  -27.8149   49.7574 C   0  0  0  1  0  0
   -3.3982  -27.6206   50.5322 N   0  0  0  1  0  0
   -3.7405  -28.4570   51.5964 C   0  0  0  1  0  0
   -4.9109  -28.2410   52.3620 C   0  0  0  1  0  0
   -5.2442  -29.0955   53.4258 C   0  0  0  1  0  0
   -4.4107  -30.1782   53.7529 C   0  0  0  1  0  0
   -4.7678  -31.0942   54.8989 C   0  0  0  1  0  0
   -3.8567  -30.9146   56.1019 C   0  0  0  1  0  0
   -2.7351  -31.3660   56.0642 O   0  0  0  1  0  0
   -4.3181  -30.2636   57.1684 O   0  0  0  1  0  0
   -5.3022  -32.4872   54.6020 C   0  0  0  1  0  0
   -6.2289  -31.4318   55.1536 C   0  0  0  1  0  0
   -3.2401  -30.4000   53.0082 C   0  0  0  1  0  0
   -2.9092  -29.5490   51.9413 C   0  0  0  1  0  0
   -4.2242  -26.4655   50.0914 C   0  0  0  1  0  0
   -3.4281  -25.1441   50.1515 C   0  0  0  1  0  0
   -3.2406  -23.4718   51.5201 H   0  0
   -3.7820  -21.8132   51.8100 H   0  0
   -2.0601  -22.1248   51.4134 H   0  0
   -3.4282  -21.2133   49.6164 H   0  0
   -5.5790  -22.0916   50.0477 H   0  0
   -5.0375  -23.7503   49.7577 H   0  0
   -5.1462  -22.6024   48.3830 H   0  0
   -2.7128  -20.8001   47.7692 H   0  0
   -1.0629  -21.1650   45.9657 H   0  0
    0.1879  -23.3118   45.8480 H   0  0
   -0.2369  -25.0845   47.5125 H   0  0
   -2.0071  -26.0799   52.1791 H   0  0
   -0.5437  -25.8341   53.9424 H   0  0
    1.1806  -27.0656   53.2374 H   0  0
    3.1288  -25.3802   52.6985 H   0  0
    2.3821  -25.4930   54.3390 H   0  0
    2.0486  -23.2265   53.9328 H   0  0
    1.9318  -23.4642   52.1525 H   0  0
   -0.2560  -23.4110   52.4912 H   0  0
   -0.7674  -26.6826   48.5454 H   0  0
   -2.4255  -26.5997   48.0009 H   0  0
   -2.2542  -28.6858   49.1116 H   0  0
   -1.3233  -28.0064   50.4507 H   0  0
   -5.5624  -27.4004   52.1230 H   0  0
   -6.1535  -28.9179   54.0001 H   0  0
   -5.1868  -30.7813   57.4509 H   0  0
   -5.0043  -33.2019   55.3692 H   0  0
   -5.4540  -32.6373   53.5331 H   0  0
   -6.8757  -31.0196   54.3791 H   0  0
   -6.4247  -31.5831   56.2151 H   0  0
   -2.5866  -31.2354   53.2594 H   0  0
   -1.9988  -29.7322   51.3706 H   0  0
   -5.1005  -26.3847   50.7346 H   0  0
   -4.5595  -26.6351   49.0682 H   0  0
   -3.9853  -24.3831   49.6051 H   0  0
   -3.3943  -24.8109   51.1888 H   0  0
  1  2  1  0
  2  3  1  0
  2  4  1  0
  4  5  2  0
  4  9  1  0
  5  6  1  0
  6  7  2  0
  7  8  1  0
  8  9  2  0
  9 10  1  0
 10 11  1  0
 10 19  1  0
 10 35  1  0
 11 12  2  0
 11 13  1  0
 13 14  1  0
 14 15  1  0
 14 18  1  0
 15 16  1  0
 16 17  1  0
 17 18  1  0
 19 20  1  0
 20 21  1  0
 21 22  1  0
 21 34  1  0
 22 23  2  0
 22 33  1  0
 23 24  1  0
 24 25  2  0
 25 26  1  0
 25 32  1  0
 26 27  1  0
 26 30  1  0
 26 31  1  0
 27 28  2  0
 27 29  1  0
 30 31  1  0
 32 33  2  0
 34 35  1  0
  1 36  1  0
  1 37  1  0
  1 38  1  0
  2 39  1  0
  3 40  1  0
  3 41  1  0
  3 42  1  0
  5 43  1  0
  6 44  1  0
  7 45  1  0
  8 46  1  0
 13 47  1  0
 14 48  1  0
 15 49  1  0
 16 50  1  0
 16 51  1  0
 17 52  1  0
 17 53  1  0
 18 54  1  0
 19 55  1  0
 19 56  1  0
 20 57  1  0
 20 58  1  0
 23 59  1  0
 24 60  1  0
 29 61  1  0
 30 62  1  0
 30 63  1  0
 31 64  1  0
 31 65  1  0
 32 66  1  0
 33 67  1  0
 34 68  1  0
 34 69  1  0
 35 70  1  0
 35 71  1  0
M  END
> <Name>
Molecule

> <AbsoluteEnergy>
62.7534

> <Clean Energy>
225.967

> <ConfNumber>
78

> <MOL_NUMBER>
5

> <RelativeEnergy>
14.4512

> <POSE_NUMBER>
61

> <LibDockScore>
116.1381

> <HotSpots>
-4.73,-22.32,50.38,A,46,3
-1.73,-21.72,46.78,A,24,6
-0.33,-25.52,53.19,A,64,14

$$$$
Molecule
  SciTegic05072616053D

 71 75  0  0  0  0            999 V2000
   -2.2988  -23.4393   48.4452 C   0  0  0  1  0  0
   -3.1013  -24.7526   48.5404 C   0  0  0  1  0  0
   -3.8448  -25.0354   47.2188 C   0  0  0  1  0  0
   -4.0239  -24.7681   49.7420 C   0  0  0  1  0  0
   -5.0773  -23.8262   49.7289 C   0  0  0  1  0  0
   -6.0245  -23.7803   50.7564 C   0  0  0  1  0  0
   -5.9308  -24.6759   51.8250 C   0  0  0  1  0  0
   -4.8820  -25.6042   51.8726 C   0  0  0  1  0  0
   -3.8901  -25.6659   50.8580 C   0  0  0  1  0  0
   -2.7343  -26.6767   50.9728 C   0  0  0  1  0  0
   -1.3868  -25.9837   50.7230 C   0  0  0  1  0  0
   -0.6833  -26.2850   49.7846 O   0  0  0  1  0  0
   -0.9831  -25.0085   51.6153 N   0  0  0  1  0  0
    0.4160  -24.5150   51.7463 C   0  0  0  1  0  0
    1.4706  -25.4795   51.3952 N   0  0  0  1  0  0
    2.5951  -25.1985   52.2854 C   0  0  0  1  0  0
    2.1317  -24.0809   53.2078 C   0  0  0  1  0  0
    0.6831  -24.1245   53.1353 N   0  0  0  1  0  0
   -3.0684  -27.8650   50.0072 C   0  0  0  1  0  0
   -4.3300  -28.6760   50.4491 C   0  0  0  1  0  0
   -4.3525  -28.8829   51.9279 N   0  0  0  1  0  0
   -5.5160  -29.0984   52.6672 C   0  0  0  1  0  0
   -6.7945  -28.7314   52.1828 C   0  0  0  1  0  0
   -7.9460  -28.9508   52.9642 C   0  0  0  1  0  0
   -7.8396  -29.5481   54.2368 C   0  0  0  1  0  0
   -9.0486  -29.7685   55.1192 C   0  0  0  1  0  0
   -9.2596  -28.5957   56.0699 C   0  0  0  1  0  0
   -9.6781  -28.8180   57.1839 O   0  0  0  1  0  0
   -8.9674  -27.3585   55.6757 O   0  0  0  1  0  0
  -10.2612  -30.5589   54.6420 C   0  0  0  1  0  0
   -9.3206  -31.1693   55.6508 C   0  0  0  1  0  0
   -6.5760  -29.9352   54.7111 C   0  0  0  1  0  0
   -5.4291  -29.6926   53.9476 C   0  0  0  1  0  0
   -3.0222  -28.7652   52.5625 C   0  0  0  1  0  0
   -2.5087  -27.3245   52.4059 C   0  0  0  1  0  0
   -2.9849  -22.6198   48.2310 H   0  0
   -1.5773  -23.5233   47.6325 H   0  0
   -1.7782  -23.2501   49.3840 H   0  0
   -2.3946  -25.5678   48.6957 H   0  0
   -3.1160  -25.1118   46.4119 H   0  0
   -4.5235  -24.2084   47.0104 H   0  0
   -4.4080  -25.9653   47.2980 H   0  0
   -5.1529  -23.1212   48.9010 H   0  0
   -6.8323  -23.0492   50.7240 H   0  0
   -6.6740  -24.6524   52.6220 H   0  0
   -4.8260  -26.2980   52.7114 H   0  0
   -1.7256  -24.5792   52.2550 H   0  0
    0.4627  -23.6895   51.0360 H   0  0
    1.7690  -25.3399   50.3772 H   0  0
    3.4563  -24.8666   51.7055 H   0  0
    2.8371  -26.0855   52.8709 H   0  0
    2.4625  -24.2769   54.2277 H   0  0
    2.4967  -23.1201   52.8449 H   0  0
    0.2739  -23.1556   53.3321 H   0  0
   -3.2346  -27.4710   49.0046 H   0  0
   -2.2127  -28.5387   49.9634 H   0  0
   -4.3265  -29.6463   49.9524 H   0  0
   -5.2277  -28.1349   50.1500 H   0  0
   -6.8888  -28.2754   51.1973 H   0  0
   -8.9241  -28.6573   52.5830 H   0  0
   -9.5321  -27.2184   54.8016 H   0  0
  -10.1034  -30.9690   53.6445 H   0  0
  -11.1788  -30.2030   55.1105 H   0  0
   -9.7365  -31.1409   56.6579 H   0  0
   -8.6604  -31.9054   55.1921 H   0  0
   -6.4882  -30.4275   55.6796 H   0  0
   -4.4522  -29.9661   54.3463 H   0  0
   -3.1016  -29.0092   53.6219 H   0  0
   -2.3265  -29.4527   52.0815 H   0  0
   -1.4424  -27.3102   52.6315 H   0  0
   -2.9973  -26.6995   53.1534 H   0  0
  1  2  1  0
  2  3  1  0
  2  4  1  0
  4  5  2  0
  4  9  1  0
  5  6  1  0
  6  7  2  0
  7  8  1  0
  8  9  2  0
  9 10  1  0
 10 11  1  0
 10 19  1  0
 10 35  1  0
 11 12  2  0
 11 13  1  0
 13 14  1  0
 14 15  1  0
 14 18  1  0
 15 16  1  0
 16 17  1  0
 17 18  1  0
 19 20  1  0
 20 21  1  0
 21 22  1  0
 21 34  1  0
 22 23  2  0
 22 33  1  0
 23 24  1  0
 24 25  2  0
 25 26  1  0
 25 32  1  0
 26 27  1  0
 26 30  1  0
 26 31  1  0
 27 28  2  0
 27 29  1  0
 30 31  1  0
 32 33  2  0
 34 35  1  0
  1 36  1  0
  1 37  1  0
  1 38  1  0
  2 39  1  0
  3 40  1  0
  3 41  1  0
  3 42  1  0
  5 43  1  0
  6 44  1  0
  7 45  1  0
  8 46  1  0
 13 47  1  0
 14 48  1  0
 15 49  1  0
 16 50  1  0
 16 51  1  0
 17 52  1  0
 17 53  1  0
 18 54  1  0
 19 55  1  0
 19 56  1  0
 20 57  1  0
 20 58  1  0
 23 59  1  0
 24 60  1  0
 29 61  1  0
 30 62  1  0
 30 63  1  0
 31 64  1  0
 31 65  1  0
 32 66  1  0
 33 67  1  0
 34 68  1  0
 34 69  1  0
 35 70  1  0
 35 71  1  0
M  END
> <Name>
Molecule

> <AbsoluteEnergy>
59.0527

> <Clean Energy>
225.967

> <ConfNumber>
49

> <MOL_NUMBER>
5

> <RelativeEnergy>
10.7506

> <POSE_NUMBER>
62

> <LibDockScore>
115.3822

> <HotSpots>
-2.53,-22.32,48.19,A,29,1
-5.13,-23.32,51.38,A,54,6
-7.73,-27.92,56.98,P,70,28

$$$$
Molecule
  SciTegic05072616053D

 71 75  0  0  0  0            999 V2000
   -1.9575  -26.0877   46.1087 C   0  0  0  1  0  0
   -1.4504  -25.4422   47.4125 C   0  0  0  1  0  0
   -0.1544  -26.1097   47.9114 C   0  0  0  1  0  0
   -1.2986  -23.9435   47.2875 C   0  0  0  1  0  0
   -0.2938  -23.4882   46.4051 C   0  0  0  1  0  0
   -0.0698  -22.1227   46.2005 C   0  0  0  1  0  0
   -0.8511  -21.1845   46.8773 C   0  0  0  1  0  0
   -1.8500  -21.6120   47.7626 C   0  0  0  1  0  0
   -2.0962  -22.9886   47.9999 C   0  0  0  1  0  0
   -3.1871  -23.4000   48.9980 C   0  0  0  1  0  0
   -2.7217  -24.6056   49.8327 C   0  0  0  1  0  0
   -3.3333  -25.6503   49.7963 O   0  0  0  1  0  0
   -1.6022  -24.5120   50.6353 N   0  0  0  1  0  0
   -1.2198  -25.6163   51.5580 C   0  0  0  1  0  0
    0.0581  -25.3791   52.2424 N   0  0  0  1  0  0
   -0.0378  -26.0620   53.5296 C   0  0  0  1  0  0
   -1.4909  -26.4844   53.6877 C   0  0  0  1  0  0
   -2.2040  -25.8055   52.6206 N   0  0  0  1  0  0
   -4.5272  -23.6845   48.2219 C   0  0  0  1  0  0
   -5.8254  -23.4514   49.0330 C   0  0  0  1  0  0
   -5.5720  -23.7017   50.4779 N   0  0  0  1  0  0
   -6.0832  -24.8116   51.1557 C   0  0  0  1  0  0
   -7.3185  -25.3953   50.7849 C   0  0  0  1  0  0
   -7.7430  -26.6074   51.3554 C   0  0  0  1  0  0
   -6.9467  -27.2451   52.3206 C   0  0  0  1  0  0
   -7.3105  -28.6133   52.8409 C   0  0  0  1  0  0
   -6.3914  -29.6816   52.2509 C   0  0  0  1  0  0
   -5.1999  -29.5810   52.4353 O   0  0  0  1  0  0
   -6.8902  -30.6890   51.5358 O   0  0  0  1  0  0
   -7.7277  -28.7624   54.2961 C   0  0  0  1  0  0
   -8.7548  -28.9279   53.2028 C   0  0  0  1  0  0
   -5.7822  -26.6158   52.7859 C   0  0  0  1  0  0
   -5.3591  -25.4100   52.2136 C   0  0  0  1  0  0
   -4.6235  -22.7112   51.0736 C   0  0  0  1  0  0
   -3.5531  -22.2808   50.0379 C   0  0  0  1  0  0
   -2.1402  -27.1461   46.2943 H   0  0
   -1.1814  -25.9908   45.3495 H   0  0
   -2.8737  -25.6016   45.7734 H   0  0
   -2.2158  -25.6163   48.1688 H   0  0
    0.6059  -26.0126   47.1364 H   0  0
   -0.3529  -27.1679   48.0813 H   0  0
    0.1869  -25.6389   48.8333 H   0  0
    0.3193  -24.2156   45.8730 H   0  0
    0.7113  -21.7927   45.5157 H   0  0
   -0.6843  -20.1193   46.7172 H   0  0
   -2.4532  -20.8675   48.2821 H   0  0
   -0.9983  -23.6297   50.5935 H   0  0
   -1.1513  -26.4901   50.9100 H   0  0
    0.8610  -25.7935   51.6693 H   0  0
    0.6050  -26.9423   53.5315 H   0  0
    0.2380  -25.3801   54.3340 H   0  0
   -1.8708  -26.1597   54.6564 H   0  0
   -1.5799  -27.5642   53.5686 H   0  0
   -3.0088  -26.4179   52.2711 H   0  0
   -4.5557  -23.0539   47.3333 H   0  0
   -4.5168  -24.7174   47.8740 H   0  0
   -6.1578  -22.4223   48.8971 H   0  0
   -6.6017  -24.1300   48.6794 H   0  0
   -7.9485  -24.8981   50.0473 H   0  0
   -8.6897  -27.0523   51.0490 H   0  0
   -7.4334  -30.2190   50.7699 H   0  0
   -7.8163  -27.7938   54.7882 H   0  0
   -7.4161  -29.7238   54.7045 H   0  0
   -8.9913  -29.9775   53.0284 H   0  0
   -9.3904  -28.0472   53.1109 H   0  0
   -5.2060  -27.0663   53.5941 H   0  0
   -4.4580  -24.9249   52.5889 H   0  0
   -5.1796  -21.8331   51.4021 H   0  0
   -4.1295  -23.1584   51.9362 H   0  0
   -2.6489  -21.9850   50.5699 H   0  0
   -3.9170  -21.4049   49.5008 H   0  0
  1  2  1  0
  2  3  1  0
  2  4  1  0
  4  5  2  0
  4  9  1  0
  5  6  1  0
  6  7  2  0
  7  8  1  0
  8  9  2  0
  9 10  1  0
 10 11  1  0
 10 19  1  0
 10 35  1  0
 11 12  2  0
 11 13  1  0
 13 14  1  0
 14 15  1  0
 14 18  1  0
 15 16  1  0
 16 17  1  0
 17 18  1  0
 19 20  1  0
 20 21  1  0
 21 22  1  0
 21 34  1  0
 22 23  2  0
 22 33  1  0
 23 24  1  0
 24 25  2  0
 25 26  1  0
 25 32  1  0
 26 27  1  0
 26 30  1  0
 26 31  1  0
 27 28  2  0
 27 29  1  0
 30 31  1  0
 32 33  2  0
 34 35  1  0
  1 36  1  0
  1 37  1  0
  1 38  1  0
  2 39  1  0
  3 40  1  0
  3 41  1  0
  3 42  1  0
  5 43  1  0
  6 44  1  0
  7 45  1  0
  8 46  1  0
 13 47  1  0
 14 48  1  0
 15 49  1  0
 16 50  1  0
 16 51  1  0
 17 52  1  0
 17 53  1  0
 18 54  1  0
 19 55  1  0
 19 56  1  0
 20 57  1  0
 20 58  1  0
 23 59  1  0
 24 60  1  0
 29 61  1  0
 30 62  1  0
 30 63  1  0
 31 64  1  0
 31 65  1  0
 32 66  1  0
 33 67  1  0
 34 68  1  0
 34 69  1  0
 35 70  1  0
 35 71  1  0
M  END
> <Name>
Molecule

> <AbsoluteEnergy>
57.6751

> <Clean Energy>
225.967

> <ConfNumber>
40

> <MOL_NUMBER>
5

> <RelativeEnergy>
9.37294

> <POSE_NUMBER>
63

> <LibDockScore>
114.8932

> <HotSpots>
-2.93,-26.32,45.98,A,15,1
-2.53,-22.32,48.19,A,29,8
-5.13,-23.32,51.38,A,54,34

$$$$
Molecule
  SciTegic05072616053D

 71 75  0  0  0  0            999 V2000
   -3.5349  -24.2963   46.7020 C   0  0  0  1  0  0
   -2.2705  -23.9747   47.5204 C   0  0  0  1  0  0
   -1.3917  -22.9283   46.8066 C   0  0  0  1  0  0
   -2.6105  -23.5641   48.9351 C   0  0  0  1  0  0
   -3.3101  -22.3456   49.0875 C   0  0  0  1  0  0
   -3.6324  -21.8453   50.3531 C   0  0  0  1  0  0
   -3.2544  -22.5560   51.4938 C   0  0  0  1  0  0
   -2.5736  -23.7732   51.3653 C   0  0  0  1  0  0
   -2.2626  -24.3275   50.0976 C   0  0  0  1  0  0
   -1.5704  -25.6974   50.0189 C   0  0  0  1  0  0
   -0.2079  -25.5824   49.3273 C   0  0  0  1  0  0
    0.0245  -26.2271   48.3286 O   0  0  0  1  0  0
    0.7638  -24.7444   49.8346 N   0  0  0  1  0  0
    2.0938  -24.6305   49.1869 C   0  0  0  1  0  0
    2.3359  -23.2401   48.7849 N   0  0  0  1  0  0
    3.2008  -22.6790   49.8087 C   0  0  0  1  0  0
    4.0249  -23.8554   50.2916 C   0  0  0  1  0  0
    3.1486  -25.0069   50.1368 N   0  0  0  1  0  0
   -2.4666  -26.7530   49.3197 C   0  0  0  1  0  0
   -3.8317  -26.9390   49.9910 C   0  0  0  1  0  0
   -3.7742  -27.1497   51.4727 N   0  0  0  1  0  0
   -4.9150  -27.5834   52.1656 C   0  0  0  1  0  0
   -4.8121  -28.4628   53.2723 C   0  0  0  1  0  0
   -5.9545  -28.8972   53.9638 C   0  0  0  1  0  0
   -7.2298  -28.4632   53.5675 C   0  0  0  1  0  0
   -8.4579  -28.9297   54.3116 C   0  0  0  1  0  0
   -8.8212  -28.0220   55.4748 C   0  0  0  1  0  0
   -9.7443  -27.2497   55.3528 O   0  0  0  1  0  0
   -8.1127  -28.1003   56.5999 O   0  0  0  1  0  0
   -8.7148  -30.4214   54.4624 C   0  0  0  1  0  0
   -9.5858  -29.6012   53.5431 C   0  0  0  1  0  0
   -7.3534  -27.5885   52.4760 C   0  0  0  1  0  0
   -6.2110  -27.1533   51.7850 C   0  0  0  1  0  0
   -2.4995  -26.8701   52.2192 C   0  0  0  1  0  0
   -1.2840  -26.3745   51.3935 C   0  0  0  1  0  0
   -3.2322  -24.6784   45.7271 H   0  0
   -4.1036  -23.3770   46.5620 H   0  0
   -4.1437  -25.0368   47.2207 H   0  0
   -1.6831  -24.8900   47.5928 H   0  0
   -1.9760  -22.0189   46.6658 H   0  0
   -1.1045  -23.3203   45.8309 H   0  0
   -0.5025  -22.7129   47.3990 H   0  0
   -3.6044  -21.7844   48.2007 H   0  0
   -4.1759  -20.9053   50.4484 H   0  0
   -3.4889  -22.1639   52.4834 H   0  0
   -2.2742  -24.3099   52.2656 H   0  0
    0.5545  -24.1665   50.7105 H   0  0
    2.1079  -25.2895   48.3188 H   0  0
    1.4117  -22.7018   48.7527 H   0  0
    3.8519  -21.9193   49.3763 H   0  0
    2.6044  -22.2793   50.6288 H   0  0
    4.2879  -23.7230   51.3411 H   0  0
    4.9111  -23.9720   49.6678 H   0  0
    3.7054  -25.8352   49.7511 H   0  0
   -2.6220  -26.4534   48.2833 H   0  0
   -1.9454  -27.7103   49.3115 H   0  0
   -4.4447  -26.0610   49.7874 H   0  0
   -4.3329  -27.7938   49.5369 H   0  0
   -3.8290  -28.8080   53.5923 H   0  0
   -5.8509  -29.5742   54.8118 H   0  0
   -7.1181  -27.9302   56.3096 H   0  0
   -9.2210  -30.6473   55.4009 H   0  0
   -7.9854  -31.0105   53.9065 H   0  0
   -9.3217  -29.7534   52.4966 H   0  0
  -10.5564  -29.3888   53.9914 H   0  0
   -8.3400  -27.2460   52.1639 H   0  0
   -6.3228  -26.4727   50.9410 H   0  0
   -2.2069  -27.7778   52.7469 H   0  0
   -2.7125  -26.1310   52.9915 H   0  0
   -0.7184  -25.6744   52.0084 H   0  0
   -0.6197  -27.2219   51.2244 H   0  0
  1  2  1  0
  2  3  1  0
  2  4  1  0
  4  5  2  0
  4  9  1  0
  5  6  1  0
  6  7  2  0
  7  8  1  0
  8  9  2  0
  9 10  1  0
 10 11  1  0
 10 19  1  0
 10 35  1  0
 11 12  2  0
 11 13  1  0
 13 14  1  0
 14 15  1  0
 14 18  1  0
 15 16  1  0
 16 17  1  0
 17 18  1  0
 19 20  1  0
 20 21  1  0
 21 22  1  0
 21 34  1  0
 22 23  2  0
 22 33  1  0
 23 24  1  0
 24 25  2  0
 25 26  1  0
 25 32  1  0
 26 27  1  0
 26 30  1  0
 26 31  1  0
 27 28  2  0
 27 29  1  0
 30 31  1  0
 32 33  2  0
 34 35  1  0
  1 36  1  0
  1 37  1  0
  1 38  1  0
  2 39  1  0
  3 40  1  0
  3 41  1  0
  3 42  1  0
  5 43  1  0
  6 44  1  0
  7 45  1  0
  8 46  1  0
 13 47  1  0
 14 48  1  0
 15 49  1  0
 16 50  1  0
 16 51  1  0
 17 52  1  0
 17 53  1  0
 18 54  1  0
 19 55  1  0
 19 56  1  0
 20 57  1  0
 20 58  1  0
 23 59  1  0
 24 60  1  0
 29 61  1  0
 30 62  1  0
 30 63  1  0
 31 64  1  0
 31 65  1  0
 32 66  1  0
 33 67  1  0
 34 68  1  0
 34 69  1  0
 35 70  1  0
 35 71  1  0
M  END
> <Name>
Molecule

> <AbsoluteEnergy>
50.1562

> <Clean Energy>
225.967

> <ConfNumber>
5

> <MOL_NUMBER>
5

> <RelativeEnergy>
1.85409

> <POSE_NUMBER>
64

> <LibDockScore>
114.3794

> <HotSpots>
-0.93,-23.32,46.98,A,25,3
-3.33,-21.92,50.38,A,47,6
-9.53,-30.12,52.78,A,62,31

$$$$
Molecule
  SciTegic05072616053D

 71 75  0  0  0  0            999 V2000
   -3.6865  -22.8617   49.4389 C   0  0  0  1  0  0
   -2.2474  -23.3993   49.5490 C   0  0  0  1  0  0
   -1.2834  -22.6264   48.6279 C   0  0  0  1  0  0
   -2.1867  -24.8903   49.3087 C   0  0  0  1  0  0
   -2.3850  -25.3235   47.9781 C   0  0  0  1  0  0
   -2.2990  -26.6760   47.6326 C   0  0  0  1  0  0
   -2.0043  -27.6224   48.6158 C   0  0  0  1  0  0
   -1.8182  -27.2158   49.9432 C   0  0  0  1  0  0
   -1.9392  -25.8584   50.3358 C   0  0  0  1  0  0
   -1.8002  -25.4824   51.8194 C   0  0  0  1  0  0
   -0.5248  -24.6713   52.0731 C   0  0  0  1  0  0
   -0.5831  -23.6249   52.6798 O   0  0  0  1  0  0
    0.6968  -25.1207   51.6159 N   0  0  0  1  0  0
    1.8880  -24.2369   51.6250 C   0  0  0  1  0  0
    3.0811  -24.9792   51.2063 N   0  0  0  1  0  0
    3.8003  -24.1195   50.2853 C   0  0  0  1  0  0
    2.7117  -23.2861   49.6421 C   0  0  0  1  0  0
    1.7056  -23.1255   50.6807 N   0  0  0  1  0  0
   -1.7263  -26.6897   52.8022 C   0  0  0  1  0  0
   -3.0059  -27.5477   52.9842 C   0  0  0  1  0  0
   -4.3185  -26.9215   52.6018 N   0  0  0  1  0  0
   -5.5007  -27.6747   52.6611 C   0  0  0  1  0  0
   -6.7477  -27.1109   52.2922 C   0  0  0  1  0  0
   -7.9305  -27.8653   52.3464 C   0  0  0  1  0  0
   -7.8972  -29.2040   52.7695 C   0  0  0  1  0  0
   -9.1684  -30.0166   52.8207 C   0  0  0  1  0  0
   -9.5116  -30.6554   51.4856 C   0  0  0  1  0  0
  -10.3232  -30.1176   50.7671 O   0  0  0  1  0  0
   -8.9087  -31.7924   51.1409 O   0  0  0  1  0  0
  -10.3101  -29.5550   53.7134 C   0  0  0  1  0  0
   -9.5161  -30.7817   54.0884 C   0  0  0  1  0  0
   -6.6721  -29.7813   53.1397 C   0  0  0  1  0  0
   -5.4897  -29.0261   53.0878 C   0  0  0  1  0  0
   -4.3597  -25.4995   52.1344 C   0  0  0  1  0  0
   -3.0528  -24.7234   52.3311 C   0  0  0  1  0  0
   -4.0153  -22.9574   48.4041 H   0  0
   -3.6858  -21.8070   49.7142 H   0  0
   -4.3525  -23.4201   50.0967 H   0  0
   -1.9150  -23.2312   50.5734 H   0  0
   -1.3021  -21.5736   48.9098 H   0  0
   -1.6316  -22.7240   47.5996 H   0  0
   -0.2714  -23.0209   48.7197 H   0  0
   -2.6096  -24.5884   47.2053 H   0  0
   -2.4612  -26.9895   46.6013 H   0  0
   -1.9192  -28.6763   48.3508 H   0  0
   -1.5732  -27.9646   50.6965 H   0  0
    0.7863  -26.1219   51.2492 H   0  0
    2.0113  -23.8608   52.6406 H   0  0
    3.6936  -25.1930   52.0572 H   0  0
    4.3102  -24.7170   49.5295 H   0  0
    4.4914  -23.4766   50.8304 H   0  0
    3.1086  -22.3135   49.3512 H   0  0
    2.2883  -23.8168   48.7894 H   0  0
    0.7278  -23.1729   50.2488 H   0  0
   -0.9199  -27.3465   52.4759 H   0  0
   -1.4254  -26.3162   53.7810 H   0  0
   -3.0679  -27.8551   54.0281 H   0  0
   -2.8874  -28.4660   52.4091 H   0  0
   -6.7891  -26.0734   51.9606 H   0  0
   -8.8783  -27.4102   52.0590 H   0  0
   -9.1179  -32.4615   51.9226 H   0  0
  -11.2798  -29.8171   53.2903 H   0  0
  -10.0238  -28.6912   54.3134 H   0  0
   -8.8067  -30.5727   54.8891 H   0  0
  -10.0618  -31.6984   53.8647 H   0  0
   -6.6388  -30.8199   53.4687 H   0  0
   -4.5466  -29.4873   53.3809 H   0  0
   -5.1576  -24.9798   52.6648 H   0  0
   -4.6171  -25.4876   51.0753 H   0  0
   -3.1276  -23.7700   51.8080 H   0  0
   -2.9269  -24.5090   53.3924 H   0  0
  1  2  1  0
  2  3  1  0
  2  4  1  0
  4  5  2  0
  4  9  1  0
  5  6  1  0
  6  7  2  0
  7  8  1  0
  8  9  2  0
  9 10  1  0
 10 11  1  0
 10 19  1  0
 10 35  1  0
 11 12  2  0
 11 13  1  0
 13 14  1  0
 14 15  1  0
 14 18  1  0
 15 16  1  0
 16 17  1  0
 17 18  1  0
 19 20  1  0
 20 21  1  0
 21 22  1  0
 21 34  1  0
 22 23  2  0
 22 33  1  0
 23 24  1  0
 24 25  2  0
 25 26  1  0
 25 32  1  0
 26 27  1  0
 26 30  1  0
 26 31  1  0
 27 28  2  0
 27 29  1  0
 30 31  1  0
 32 33  2  0
 34 35  1  0
  1 36  1  0
  1 37  1  0
  1 38  1  0
  2 39  1  0
  3 40  1  0
  3 41  1  0
  3 42  1  0
  5 43  1  0
  6 44  1  0
  7 45  1  0
  8 46  1  0
 13 47  1  0
 14 48  1  0
 15 49  1  0
 16 50  1  0
 16 51  1  0
 17 52  1  0
 17 53  1  0
 18 54  1  0
 19 55  1  0
 19 56  1  0
 20 57  1  0
 20 58  1  0
 23 59  1  0
 24 60  1  0
 29 61  1  0
 30 62  1  0
 30 63  1  0
 31 64  1  0
 31 65  1  0
 32 66  1  0
 33 67  1  0
 34 68  1  0
 34 69  1  0
 35 70  1  0
 35 71  1  0
M  END
> <Name>
Molecule

> <AbsoluteEnergy>
50.2796

> <Clean Energy>
225.967

> <ConfNumber>
6

> <MOL_NUMBER>
5

> <RelativeEnergy>
1.97745

> <POSE_NUMBER>
65

> <LibDockScore>
113.9227

> <HotSpots>
1.67,-24.32,50.98,A,50,14
2.67,-23.92,48.98,A,32,17
-7.93,-28.32,52.38,A,59,24

$$$$
Molecule
  SciTegic05072616053D

 71 75  0  0  0  0            999 V2000
   -5.3690  -22.5204   46.4812 C   0  0  0  1  0  0
   -4.4889  -23.1768   47.5725 C   0  0  0  1  0  0
   -3.4765  -22.1354   48.0810 C   0  0  0  1  0  0
   -3.8144  -24.4824   47.1855 C   0  0  0  1  0  0
   -3.9066  -24.8590   45.8209 C   0  0  0  1  0  0
   -3.3469  -26.0438   45.3378 C   0  0  0  1  0  0
   -2.6656  -26.8860   46.2092 C   0  0  0  1  0  0
   -2.5403  -26.5351   47.5567 C   0  0  0  1  0  0
   -3.0970  -25.3429   48.0993 C   0  0  0  1  0  0
   -2.8467  -25.0910   49.6109 C   0  0  0  1  0  0
   -1.6073  -24.2114   49.8240 C   0  0  0  1  0  0
   -1.6584  -23.2666   50.5799 O   0  0  0  1  0  0
   -0.4180  -24.4832   49.1774 N   0  0  0  1  0  0
    0.8480  -23.8305   49.6015 C   0  0  0  1  0  0
    1.4709  -24.5187   50.7375 N   0  0  0  1  0  0
    2.8768  -24.1694   50.6297 C   0  0  0  1  0  0
    3.1397  -24.0715   49.1355 C   0  0  0  1  0  0
    1.8386  -23.8330   48.5209 N   0  0  0  1  0  0
   -2.5984  -26.4086   50.4257 C   0  0  0  1  0  0
   -3.8065  -27.3689   50.4366 C   0  0  0  1  0  0
   -5.0377  -26.6947   50.9477 N   0  0  0  1  0  0
   -5.8787  -27.2793   51.8914 C   0  0  0  1  0  0
   -7.1309  -26.6940   52.1895 C   0  0  0  1  0  0
   -7.9836  -27.2692   53.1456 C   0  0  0  1  0  0
   -7.6022  -28.4418   53.8182 C   0  0  0  1  0  0
   -8.5160  -29.0533   54.8524 C   0  0  0  1  0  0
   -8.6548  -28.1844   56.0908 C   0  0  0  1  0  0
   -7.7326  -28.1199   56.8718 O   0  0  0  1  0  0
   -9.7888  -27.5123   56.2806 O   0  0  0  1  0  0
   -8.5584  -30.5654   55.0171 C   0  0  0  1  0  0
   -9.7308  -29.8462   54.3964 C   0  0  0  1  0  0
   -6.3634  -29.0376   53.5272 C   0  0  0  1  0  0
   -5.5069  -28.4604   52.5746 C   0  0  0  1  0  0
   -5.3139  -25.3413   50.3814 C   0  0  0  1  0  0
   -4.0391  -24.4747   50.4022 C   0  0  0  1  0  0
   -4.7448  -22.1878   45.6518 H   0  0
   -5.9054  -21.6689   46.8999 H   0  0
   -6.0896  -23.2517   46.1151 H   0  0
   -5.1652  -23.4832   48.3705 H   0  0
   -4.0044  -21.2822   48.5070 H   0  0
   -2.8437  -21.8011   47.2589 H   0  0
   -2.8522  -22.5897   48.8504 H   0  0
   -4.4313  -24.2023   45.1269 H   0  0
   -3.4436  -26.3065   44.2844 H   0  0
   -2.2309  -27.8162   45.8433 H   0  0
   -1.9924  -27.2037   48.2207 H   0  0
   -0.4077  -25.1733   48.3597 H   0  0
    0.5703  -22.8136   49.8788 H   0  0
    1.0686  -24.1503   51.6580 H   0  0
    3.4942  -24.9548   51.0658 H   0  0
    3.0616  -23.2058   51.1044 H   0  0
    3.8078  -23.2352   48.9297 H   0  0
    3.5585  -25.0086   48.7687 H   0  0
    1.6166  -24.6169   47.8272 H   0  0
   -1.7396  -26.9290   50.0017 H   0  0
   -2.3485  -26.1469   51.4539 H   0  0
   -3.9895  -27.7265   49.4233 H   0  0
   -3.5791  -28.2256   51.0710 H   0  0
   -7.4379  -25.7857   51.6711 H   0  0
   -8.9444  -26.8042   53.3664 H   0  0
  -10.5453  -28.2403   56.2670 H   0  0
   -8.7615  -30.8497   56.0496 H   0  0
   -7.9492  -31.0663   54.2647 H   0  0
   -9.7477  -29.9647   53.3130 H   0  0
  -10.5592  -29.7467   55.0978 H   0  0
   -6.0658  -29.9509   54.0423 H   0  0
   -4.5459  -28.9278   52.3599 H   0  0
   -6.0901  -24.8540   50.9715 H   0  0
   -5.6624  -25.4447   49.3538 H   0  0
   -4.2731  -23.4960   49.9832 H   0  0
   -3.7342  -24.3233   51.4377 H   0  0
  1  2  1  0
  2  3  1  0
  2  4  1  0
  4  5  2  0
  4  9  1  0
  5  6  1  0
  6  7  2  0
  7  8  1  0
  8  9  2  0
  9 10  1  0
 10 11  1  0
 10 19  1  0
 10 35  1  0
 11 12  2  0
 11 13  1  0
 13 14  1  0
 14 15  1  0
 14 18  1  0
 15 16  1  0
 16 17  1  0
 17 18  1  0
 19 20  1  0
 20 21  1  0
 21 22  1  0
 21 34  1  0
 22 23  2  0
 22 33  1  0
 23 24  1  0
 24 25  2  0
 25 26  1  0
 25 32  1  0
 26 27  1  0
 26 30  1  0
 26 31  1  0
 27 28  2  0
 27 29  1  0
 30 31  1  0
 32 33  2  0
 34 35  1  0
  1 36  1  0
  1 37  1  0
  1 38  1  0
  2 39  1  0
  3 40  1  0
  3 41  1  0
  3 42  1  0
  5 43  1  0
  6 44  1  0
  7 45  1  0
  8 46  1  0
 13 47  1  0
 14 48  1  0
 15 49  1  0
 16 50  1  0
 16 51  1  0
 17 52  1  0
 17 53  1  0
 18 54  1  0
 19 55  1  0
 19 56  1  0
 20 57  1  0
 20 58  1  0
 23 59  1  0
 24 60  1  0
 29 61  1  0
 30 62  1  0
 30 63  1  0
 31 64  1  0
 31 65  1  0
 32 66  1  0
 33 67  1  0
 34 68  1  0
 34 69  1  0
 35 70  1  0
 35 71  1  0
M  END
> <Name>
Molecule

> <AbsoluteEnergy>
59.3048

> <Clean Energy>
225.967

> <ConfNumber>
55

> <MOL_NUMBER>
5

> <RelativeEnergy>
11.0027

> <POSE_NUMBER>
66

> <LibDockScore>
113.8654

> <HotSpots>
-5.13,-22.92,46.19,A,18,1
3.07,-24.52,50.38,A,43,16
-7.73,-27.92,56.98,P,70,28

$$$$
Molecule
  SciTegic05072616053D

 71 75  0  0  0  0            999 V2000
   -8.7919  -27.7501   53.7902 C   0  0  0  1  0  0
   -7.5819  -27.9566   52.8501 C   0  0  0  1  0  0
   -7.5045  -26.7586   51.8756 C   0  0  0  1  0  0
   -7.5321  -29.2853   52.1169 C   0  0  0  1  0  0
   -8.7777  -29.8959   51.8295 C   0  0  0  1  0  0
   -8.8664  -31.1362   51.1897 C   0  0  0  1  0  0
   -7.7018  -31.7942   50.7985 C   0  0  0  1  0  0
   -6.4577  -31.2033   51.0392 C   0  0  0  1  0  0
   -6.3215  -29.9473   51.6915 C   0  0  0  1  0  0
   -4.8700  -29.4391   51.8305 C   0  0  0  1  0  0
   -4.0971  -30.2548   52.8795 C   0  0  0  1  0  0
   -2.8999  -30.1163   52.9985 O   0  0  0  1  0  0
   -4.7555  -31.1417   53.7056 N   0  0  0  1  0  0
   -4.1554  -31.5546   55.0000 C   0  0  0  1  0  0
   -4.2535  -30.4872   56.0002 N   0  0  0  1  0  0
   -4.0871  -31.1738   57.2739 C   0  0  0  1  0  0
   -4.5060  -32.6194   57.0256 C   0  0  0  1  0  0
   -4.8129  -32.7168   55.6021 N   0  0  0  1  0  0
   -4.6470  -27.9588   52.2963 C   0  0  0  1  0  0
   -3.1698  -27.5347   52.2215 C   0  0  0  1  0  0
   -2.7876  -27.6174   50.7916 N   0  0  0  1  0  0
   -2.6213  -26.4980   49.9837 C   0  0  0  1  0  0
   -2.2182  -26.6020   48.6334 C   0  0  0  1  0  0
   -2.1680  -25.4604   47.8137 C   0  0  0  1  0  0
   -2.5010  -24.1983   48.3373 C   0  0  0  1  0  0
   -2.5456  -22.9741   47.4497 C   0  0  0  1  0  0
   -3.9354  -22.7398   46.8381 C   0  0  0  1  0  0
   -4.8816  -23.3545   47.2820 O   0  0  0  1  0  0
   -4.0964  -21.8690   45.8378 O   0  0  0  1  0  0
   -1.7289  -21.7587   47.8609 C   0  0  0  1  0  0
   -1.2949  -22.5853   46.6724 C   0  0  0  1  0  0
   -2.8237  -24.0757   49.6994 C   0  0  0  1  0  0
   -2.8896  -25.2130   50.5113 C   0  0  0  1  0  0
   -2.7609  -29.0114   50.2851 C   0  0  0  1  0  0
   -4.1774  -29.6240   50.4302 C   0  0  0  1  0  0
   -9.7111  -27.6988   53.2067 H   0  0
   -8.6672  -26.8287   54.3591 H   0  0
   -8.8546  -28.5906   54.4814 H   0  0
   -6.6987  -27.9986   53.4876 H   0  0
   -7.3736  -25.8324   52.4352 H   0  0
   -8.4175  -26.7024   51.2828 H   0  0
   -6.6536  -26.8955   51.2083 H   0  0
   -9.6957  -29.3829   52.1161 H   0  0
   -9.8407  -31.5857   50.9981 H   0  0
   -7.7606  -32.7653   50.3070 H   0  0
   -5.5578  -31.7255   50.7143 H   0  0
   -5.7060  -31.5354   53.4116 H   0  0
   -3.1216  -31.7936   54.7507 H   0  0
   -3.4662  -29.7764   55.8593 H   0  0
   -4.7339  -30.7251   58.0278 H   0  0
   -3.0424  -31.1386   57.5828 H   0  0
   -5.3932  -32.8552   57.6133 H   0  0
   -3.6846  -33.2911   57.2750 H   0  0
   -4.4053  -33.6206   55.1997 H   0  0
   -4.9952  -27.8514   53.3236 H   0  0
   -5.2392  -27.2944   51.6670 H   0  0
   -2.5569  -28.2180   52.8093 H   0  0
   -3.0601  -26.5099   52.5763 H   0  0
   -1.9441  -27.5743   48.2241 H   0  0
   -1.8701  -25.5540   46.7694 H   0  0
   -3.4276  -22.1955   45.0971 H   0  0
   -1.1175  -21.9657   48.7392 H   0  0
   -2.2096  -20.8307   47.5512 H   0  0
   -1.5451  -22.0973   45.7304 H   0  0
   -0.4540  -23.2336   46.9189 H   0  0
   -3.0232  -23.0920   50.1244 H   0  0
   -3.1511  -25.1078   51.5642 H   0  0
   -2.4694  -29.0128   49.2348 H   0  0
   -2.0493  -29.5984   50.8658 H   0  0
   -4.1157  -30.6903   50.2125 H   0  0
   -4.8205  -29.1898   49.6647 H   0  0
  1  2  1  0
  2  3  1  0
  2  4  1  0
  4  5  2  0
  4  9  1  0
  5  6  1  0
  6  7  2  0
  7  8  1  0
  8  9  2  0
  9 10  1  0
 10 11  1  0
 10 19  1  0
 10 35  1  0
 11 12  2  0
 11 13  1  0
 13 14  1  0
 14 15  1  0
 14 18  1  0
 15 16  1  0
 16 17  1  0
 17 18  1  0
 19 20  1  0
 20 21  1  0
 21 22  1  0
 21 34  1  0
 22 23  2  0
 22 33  1  0
 23 24  1  0
 24 25  2  0
 25 26  1  0
 25 32  1  0
 26 27  1  0
 26 30  1  0
 26 31  1  0
 27 28  2  0
 27 29  1  0
 30 31  1  0
 32 33  2  0
 34 35  1  0
  1 36  1  0
  1 37  1  0
  1 38  1  0
  2 39  1  0
  3 40  1  0
  3 41  1  0
  3 42  1  0
  5 43  1  0
  6 44  1  0
  7 45  1  0
  8 46  1  0
 13 47  1  0
 14 48  1  0
 15 49  1  0
 16 50  1  0
 16 51  1  0
 17 52  1  0
 17 53  1  0
 18 54  1  0
 19 55  1  0
 19 56  1  0
 20 57  1  0
 20 58  1  0
 23 59  1  0
 24 60  1  0
 29 61  1  0
 30 62  1  0
 30 63  1  0
 31 64  1  0
 31 65  1  0
 32 66  1  0
 33 67  1  0
 34 68  1  0
 34 69  1  0
 35 70  1  0
 35 71  1  0
M  END
> <Name>
Molecule

> <AbsoluteEnergy>
65.0615

> <Clean Energy>
225.967

> <ConfNumber>
90

> <MOL_NUMBER>
5

> <RelativeEnergy>
16.7594

> <POSE_NUMBER>
67

> <LibDockScore>
113.6382

> <HotSpots>
-9.53,-30.12,52.78,A,62,6
-4.13,-30.52,57.38,P,71,18
-0.93,-23.32,46.98,A,25,31

$$$$
Molecule
  SciTegic05072616053D

 71 75  0  0  0  0            999 V2000
   -2.0326  -26.1086   46.1335 C   0  0  0  1  0  0
   -1.4348  -25.4367   47.3811 C   0  0  0  1  0  0
   -0.1004  -26.0835   47.7944 C   0  0  0  1  0  0
   -1.3045  -23.9397   47.2120 C   0  0  0  1  0  0
   -0.3249  -23.4957   46.2949 C   0  0  0  1  0  0
   -0.1192  -22.1323   46.0562 C   0  0  0  1  0  0
   -0.8949  -21.1847   46.7322 C   0  0  0  1  0  0
   -1.8730  -21.6027   47.6453 C   0  0  0  1  0  0
   -2.1061  -22.9783   47.9168 C   0  0  0  1  0  0
   -3.1892  -23.3817   48.9304 C   0  0  0  1  0  0
   -2.6954  -24.4800   49.8875 C   0  0  0  1  0  0
   -3.3356  -25.4999   50.0284 O   0  0  0  1  0  0
   -1.5381  -24.3133   50.6202 N   0  0  0  1  0  0
   -1.2259  -25.1771   51.7882 C   0  0  0  1  0  0
   -1.1227  -26.5871   51.4231 N   0  0  0  1  0  0
   -1.3874  -27.3190   52.6501 C   0  0  0  1  0  0
   -2.3004  -26.4143   53.4680 C   0  0  0  1  0  0
   -2.2835  -25.1174   52.8023 N   0  0  0  1  0  0
   -4.4960  -23.8186   48.1687 C   0  0  0  1  0  0
   -5.8163  -23.6468   48.9695 C   0  0  0  1  0  0
   -5.5579  -23.7690   50.4364 N   0  0  0  1  0  0
   -5.9744  -24.8636   51.2152 C   0  0  0  1  0  0
   -7.1898  -25.5441   50.9415 C   0  0  0  1  0  0
   -7.5196  -26.7382   51.6020 C   0  0  0  1  0  0
   -6.6567  -27.2715   52.5759 C   0  0  0  1  0  0
   -6.9478  -28.6229   53.1879 C   0  0  0  1  0  0
   -7.8513  -28.6025   54.4241 C   0  0  0  1  0  0
   -9.0531  -28.5267   54.2771 O   0  0  0  1  0  0
   -7.3305  -28.6856   55.6532 O   0  0  0  1  0  0
   -7.1501  -29.7685   52.2058 C   0  0  0  1  0  0
   -5.9045  -29.7273   53.0551 C   0  0  0  1  0  0
   -5.5111  -26.5479   52.9479 C   0  0  0  1  0  0
   -5.1796  -25.3562   52.2833 C   0  0  0  1  0  0
   -4.6942  -22.6504   50.9419 C   0  0  0  1  0  0
   -3.6593  -22.2108   49.8684 C   0  0  0  1  0  0
   -2.1911  -27.1646   46.3522 H   0  0
   -1.3160  -26.0208   45.3169 H   0  0
   -2.9755  -25.6356   45.8590 H   0  0
   -2.1382  -25.6024   48.1971 H   0  0
    0.5984  -25.9960   46.9625 H   0  0
   -0.2767  -27.1398   47.9977 H   0  0
    0.3047  -25.5926   48.6792 H   0  0
    0.2817  -24.2291   45.7636 H   0  0
    0.6425  -21.8100   45.3463 H   0  0
   -0.7389  -20.1216   46.5490 H   0  0
   -2.4714  -20.8520   48.1614 H   0  0
   -0.8492  -23.5438   50.3407 H   0  0
   -0.2771  -24.7983   52.1681 H   0  0
   -0.1354  -26.8048   51.0728 H   0  0
   -1.8973  -28.2556   52.4246 H   0  0
   -0.4572  -27.4944   53.1905 H   0  0
   -3.3135  -26.8165   53.4728 H   0  0
   -1.9146  -26.3161   54.4827 H   0  0
   -2.0629  -24.3480   53.5124 H   0  0
   -4.5715  -23.2422   47.2467 H   0  0
   -4.3990  -24.8651   47.8797 H   0  0
   -6.2411  -22.6652   48.7592 H   0  0
   -6.5275  -24.4144   48.6642 H   0  0
   -7.8796  -25.1319   50.2050 H   0  0
   -8.4485  -27.2541   51.3589 H   0  0
   -6.6430  -27.8932   55.6970 H   0  0
   -6.9492  -29.4567   51.1809 H   0  0
   -7.8706  -30.4946   52.5823 H   0  0
   -5.9599  -30.4308   53.8859 H   0  0
   -5.0387  -29.3911   52.4846 H   0  0
   -4.8771  -26.9132   53.7558 H   0  0
   -4.2956  -24.7990   52.5933 H   0  0
   -5.3243  -21.8000   51.2022 H   0  0
   -4.1652  -22.9801   51.8361 H   0  0
   -2.7885  -21.7896   50.3708 H   0  0
   -4.0996  -21.4228   49.2574 H   0  0
  1  2  1  0
  2  3  1  0
  2  4  1  0
  4  5  2  0
  4  9  1  0
  5  6  1  0
  6  7  2  0
  7  8  1  0
  8  9  2  0
  9 10  1  0
 10 11  1  0
 10 19  1  0
 10 35  1  0
 11 12  2  0
 11 13  1  0
 13 14  1  0
 14 15  1  0
 14 18  1  0
 15 16  1  0
 16 17  1  0
 17 18  1  0
 19 20  1  0
 20 21  1  0
 21 22  1  0
 21 34  1  0
 22 23  2  0
 22 33  1  0
 23 24  1  0
 24 25  2  0
 25 26  1  0
 25 32  1  0
 26 27  1  0
 26 30  1  0
 26 31  1  0
 27 28  2  0
 27 29  1  0
 30 31  1  0
 32 33  2  0
 34 35  1  0
  1 36  1  0
  1 37  1  0
  1 38  1  0
  2 39  1  0
  3 40  1  0
  3 41  1  0
  3 42  1  0
  5 43  1  0
  6 44  1  0
  7 45  1  0
  8 46  1  0
 13 47  1  0
 14 48  1  0
 15 49  1  0
 16 50  1  0
 16 51  1  0
 17 52  1  0
 17 53  1  0
 18 54  1  0
 19 55  1  0
 19 56  1  0
 20 57  1  0
 20 58  1  0
 23 59  1  0
 24 60  1  0
 29 61  1  0
 30 62  1  0
 30 63  1  0
 31 64  1  0
 31 65  1  0
 32 66  1  0
 33 67  1  0
 34 68  1  0
 34 69  1  0
 35 70  1  0
 35 71  1  0
M  END
> <Name>
Molecule

> <AbsoluteEnergy>
56.3984

> <Clean Energy>
225.967

> <ConfNumber>
36

> <MOL_NUMBER>
5

> <RelativeEnergy>
8.09623

> <POSE_NUMBER>
68

> <LibDockScore>
113.5051

> <HotSpots>
-2.93,-26.32,45.98,A,15,1
-2.53,-22.32,48.19,A,29,8
-5.13,-23.32,51.38,A,54,34

$$$$
Molecule
  SciTegic05072616053D

 71 75  0  0  0  0            999 V2000
   -3.8287  -25.2217   46.3939 C   0  0  0  1  0  0
   -2.9013  -24.9128   47.5843 C   0  0  0  1  0  0
   -2.1311  -23.5955   47.3699 C   0  0  0  1  0  0
   -3.6549  -24.9196   48.8951 C   0  0  0  1  0  0
   -4.7491  -24.0297   48.9942 C   0  0  0  1  0  0
   -5.5208  -23.9510   50.1576 C   0  0  0  1  0  0
   -5.2127  -24.7679   51.2471 C   0  0  0  1  0  0
   -4.1347  -25.6585   51.1705 C   0  0  0  1  0  0
   -3.3256  -25.7613   50.0085 C   0  0  0  1  0  0
   -2.1535  -26.7591   49.9836 C   0  0  0  1  0  0
   -0.9106  -26.1656   49.3101 C   0  0  0  1  0  0
   -0.5068  -26.6302   48.2670 O   0  0  0  1  0  0
   -0.2399  -25.1063   49.8863 N   0  0  0  1  0  0
    1.0166  -24.5808   49.2970 C   0  0  0  1  0  0
    1.0864  -23.1194   49.4321 N   0  0  0  1  0  0
    2.2681  -22.8194   50.2273 C   0  0  0  1  0  0
    3.1362  -24.0550   50.1172 C   0  0  0  1  0  0
    2.1805  -25.1386   49.9899 N   0  0  0  1  0  0
   -2.6102  -28.0796   49.2916 C   0  0  0  1  0  0
   -3.8212  -28.7402   49.9866 C   0  0  0  1  0  0
   -3.7301  -28.6686   51.4760 N   0  0  0  1  0  0
   -4.8637  -28.8014   52.2807 C   0  0  0  1  0  0
   -4.7784  -29.2798   53.6099 C   0  0  0  1  0  0
   -5.9300  -29.4138   54.4030 C   0  0  0  1  0  0
   -7.1903  -29.0647   53.8881 C   0  0  0  1  0  0
   -8.4274  -29.2067   54.7425 C   0  0  0  1  0  0
   -8.8123  -27.9132   55.4407 C   0  0  0  1  0  0
   -9.5220  -27.1214   54.8643 O   0  0  0  1  0  0
   -8.3572  -27.6846   56.6711 O   0  0  0  1  0  0
   -8.6784  -30.5159   55.4749 C   0  0  0  1  0  0
   -9.5404  -30.1421   54.2944 C   0  0  0  1  0  0
   -7.2904  -28.5787   52.5735 C   0  0  0  1  0  0
   -6.1396  -28.4497   51.7784 C   0  0  0  1  0  0
   -2.3589  -28.4409   52.0221 C   0  0  0  1  0  0
   -1.6463  -27.2114   51.4022 C   0  0  0  1  0  0
   -3.2235  -25.2960   45.4904 H   0  0
   -4.5359  -24.4001   46.2804 H   0  0
   -4.3646  -26.1557   46.5629 H   0  0
   -2.1624  -25.7122   47.6397 H   0  0
   -2.8512  -22.7862   47.2490 H   0  0
   -1.5387  -23.6822   46.4590 H   0  0
   -1.4808  -23.3934   48.2210 H   0  0
   -4.9963  -23.3915   48.1458 H   0  0
   -6.3583  -23.2557   50.2136 H   0  0
   -5.8108  -24.7125   52.1567 H   0  0
   -3.9101  -26.2918   52.0288 H   0  0
   -0.6327  -24.6558   50.7738 H   0  0
    1.0217  -24.8649   48.2447 H   0  0
    0.2123  -22.7586   49.9327 H   0  0
    2.7912  -21.9583   49.8114 H   0  0
    1.9887  -22.6522   51.2675 H   0  0
    3.7293  -24.1801   51.0231 H   0  0
    3.7609  -23.9966   49.2259 H   0  0
    2.6050  -25.9317   49.4104 H   0  0
   -2.8715  -27.8646   48.2554 H   0  0
   -1.7785  -28.7841   49.2865 H   0  0
   -3.8800  -29.7859   49.6847 H   0  0
   -4.7343  -28.2409   49.6625 H   0  0
   -3.8063  -29.5478   54.0237 H   0  0
   -5.8458  -29.7903   55.4225 H   0  0
   -7.3123  -27.7530   56.5938 H   0  0
   -9.1971  -30.3528   56.4196 H   0  0
   -7.9377  -31.2703   55.2097 H   0  0
   -9.2600  -30.6976   53.3994 H   0  0
  -10.5186  -29.7786   54.6092 H   0  0
   -8.2639  -28.3010   52.1695 H   0  0
   -6.2304  -28.0732   50.7595 H   0  0
   -2.4277  -28.3025   53.1011 H   0  0
   -1.7537  -29.3289   51.8395 H   0  0
   -0.5803  -27.4286   51.3355 H   0  0
   -1.7468  -26.3722   52.0905 H   0  0
  1  2  1  0
  2  3  1  0
  2  4  1  0
  4  5  2  0
  4  9  1  0
  5  6  1  0
  6  7  2  0
  7  8  1  0
  8  9  2  0
  9 10  1  0
 10 11  1  0
 10 19  1  0
 10 35  1  0
 11 12  2  0
 11 13  1  0
 13 14  1  0
 14 15  1  0
 14 18  1  0
 15 16  1  0
 16 17  1  0
 17 18  1  0
 19 20  1  0
 20 21  1  0
 21 22  1  0
 21 34  1  0
 22 23  2  0
 22 33  1  0
 23 24  1  0
 24 25  2  0
 25 26  1  0
 25 32  1  0
 26 27  1  0
 26 30  1  0
 26 31  1  0
 27 28  2  0
 27 29  1  0
 30 31  1  0
 32 33  2  0
 34 35  1  0
  1 36  1  0
  1 37  1  0
  1 38  1  0
  2 39  1  0
  3 40  1  0
  3 41  1  0
  3 42  1  0
  5 43  1  0
  6 44  1  0
  7 45  1  0
  8 46  1  0
 13 47  1  0
 14 48  1  0
 15 49  1  0
 16 50  1  0
 16 51  1  0
 17 52  1  0
 17 53  1  0
 18 54  1  0
 19 55  1  0
 19 56  1  0
 20 57  1  0
 20 58  1  0
 23 59  1  0
 24 60  1  0
 29 61  1  0
 30 62  1  0
 30 63  1  0
 31 64  1  0
 31 65  1  0
 32 66  1  0
 33 67  1  0
 34 68  1  0
 34 69  1  0
 35 70  1  0
 35 71  1  0
M  END
> <Name>
Molecule

> <AbsoluteEnergy>
51.8905

> <Clean Energy>
225.967

> <ConfNumber>
16

> <MOL_NUMBER>
5

> <RelativeEnergy>
3.58834

> <POSE_NUMBER>
69

> <LibDockScore>
113.0411

> <HotSpots>
-4.93,-23.52,47.59,A,26,1
2.67,-23.92,48.98,A,32,17
-7.93,-28.32,52.38,A,59,32

$$$$
Molecule
  SciTegic05072616053D

 71 75  0  0  0  0            999 V2000
   -2.1020  -26.7272   53.6568 C   0  0  0  1  0  0
   -1.8795  -26.3656   52.1808 C   0  0  0  1  0  0
   -2.2775  -24.9203   51.8277 C   0  0  0  1  0  0
   -2.2464  -27.4119   51.1288 C   0  0  0  1  0  0
   -1.1811  -27.7278   50.2464 C   0  0  0  1  0  0
   -1.3118  -28.6687   49.2239 C   0  0  0  1  0  0
   -2.5257  -29.3258   49.0489 C   0  0  0  1  0  0
   -3.6014  -29.0351   49.8930 C   0  0  0  1  0  0
   -3.5161  -28.0809   50.9448 C   0  0  0  1  0  0
   -4.7824  -27.8503   51.7932 C   0  0  0  1  0  0
   -5.0235  -26.3652   52.0787 C   0  0  0  1  0  0
   -4.9645  -25.9345   53.2072 O   0  0  0  1  0  0
   -5.3388  -25.5073   51.0427 N   0  0  0  1  0  0
   -5.6205  -24.0722   51.2822 C   0  0  0  1  0  0
   -4.6724  -23.2310   50.5572 N   0  0  0  1  0  0
   -5.4000  -22.0137   50.2551 C   0  0  0  1  0  0
   -6.8285  -22.4790   50.0379 C   0  0  0  1  0  0
   -6.9525  -23.7309   50.7768 N   0  0  0  1  0  0
   -6.1128  -28.3142   51.0963 C   0  0  0  1  0  0
   -7.3680  -28.1098   51.9655 C   0  0  0  1  0  0
   -7.2501  -28.8468   53.2580 N   0  0  0  1  0  0
   -8.2774  -29.6413   53.7644 C   0  0  0  1  0  0
   -8.1520  -30.2443   55.0373 C   0  0  0  1  0  0
   -9.1804  -31.0457   55.5591 C   0  0  0  1  0  0
  -10.3572  -31.2565   54.8198 C   0  0  0  1  0  0
  -11.4645  -32.1157   55.3819 C   0  0  0  1  0  0
  -11.1765  -33.6025   55.2599 C   0  0  0  1  0  0
  -10.8191  -34.2155   56.2396 O   0  0  0  1  0  0
  -11.3257  -34.1927   54.0757 O   0  0  0  1  0  0
  -12.9077  -31.6543   55.2458 C   0  0  0  1  0  0
  -12.2391  -31.6296   56.5980 C   0  0  0  1  0  0
  -10.4943  -30.6648   53.5525 C   0  0  0  1  0  0
   -9.4633  -29.8684   53.0277 C   0  0  0  1  0  0
   -5.9605  -28.6757   53.9912 C   0  0  0  1  0  0
   -4.7336  -28.7648   53.0556 C   0  0  0  1  0  0
   -3.1582  -26.5732   53.8775 H   0  0
   -1.5195  -26.0290   54.2579 H   0  0
   -1.8084  -27.7562   53.8640 H   0  0
   -0.7924  -26.3967   52.1073 H   0  0
   -1.6919  -24.2538   52.4609 H   0  0
   -3.3307  -24.7980   52.0805 H   0  0
   -2.1041  -24.7053   50.7733 H   0  0
   -0.2262  -27.2172   50.3716 H   0  0
   -0.4694  -28.8871   48.5675 H   0  0
   -2.6376  -30.0652   48.2559 H   0  0
   -4.5438  -29.5608   49.7391 H   0  0
   -5.3806  -25.8881   50.0436 H   0  0
   -5.5457  -23.9016   52.3562 H   0  0
   -3.8294  -23.0096   51.1779 H   0  0
   -5.0127  -21.5583   49.3437 H   0  0
   -5.3548  -21.3278   51.1010 H   0  0
   -7.5245  -21.7408   50.4364 H   0  0
   -7.0061  -22.6539   48.9768 H   0  0
   -7.3006  -24.5033   50.1233 H   0  0
   -6.2356  -27.7605   50.1655 H   0  0
   -6.0296  -29.3709   50.8421 H   0  0
   -7.4953  -27.0466   52.1692 H   0  0
   -8.2434  -28.4708   51.4256 H   0  0
   -7.2454  -30.0850   55.6210 H   0  0
   -9.0657  -31.5058   56.5406 H   0  0
  -10.7076  -33.6530   53.4206 H   0  0
  -13.5903  -32.4987   55.1497 H   0  0
  -12.9688  -30.6577   54.8086 H   0  0
  -11.9440  -30.6197   56.8827 H   0  0
  -12.5641  -32.4613   57.2231 H   0  0
  -11.4045  -30.8246   52.9745 H   0  0
   -9.5784  -29.4200   52.0409 H   0  0
   -5.8806  -29.4477   54.7565 H   0  0
   -5.9598  -27.7050   54.4871 H   0  0
   -3.8413  -28.5176   53.6307 H   0  0
   -4.6200  -29.7992   52.7312 H   0  0
  1  2  1  0
  2  3  1  0
  2  4  1  0
  4  5  2  0
  4  9  1  0
  5  6  1  0
  6  7  2  0
  7  8  1  0
  8  9  2  0
  9 10  1  0
 10 11  1  0
 10 19  1  0
 10 35  1  0
 11 12  2  0
 11 13  1  0
 13 14  1  0
 14 15  1  0
 14 18  1  0
 15 16  1  0
 16 17  1  0
 17 18  1  0
 19 20  1  0
 20 21  1  0
 21 22  1  0
 21 34  1  0
 22 23  2  0
 22 33  1  0
 23 24  1  0
 24 25  2  0
 25 26  1  0
 25 32  1  0
 26 27  1  0
 26 30  1  0
 26 31  1  0
 27 28  2  0
 27 29  1  0
 30 31  1  0
 32 33  2  0
 34 35  1  0
  1 36  1  0
  1 37  1  0
  1 38  1  0
  2 39  1  0
  3 40  1  0
  3 41  1  0
  3 42  1  0
  5 43  1  0
  6 44  1  0
  7 45  1  0
  8 46  1  0
 13 47  1  0
 14 48  1  0
 15 49  1  0
 16 50  1  0
 16 51  1  0
 17 52  1  0
 17 53  1  0
 18 54  1  0
 19 55  1  0
 19 56  1  0
 20 57  1  0
 20 58  1  0
 23 59  1  0
 24 60  1  0
 29 61  1  0
 30 62  1  0
 30 63  1  0
 31 64  1  0
 31 65  1  0
 32 66  1  0
 33 67  1  0
 34 68  1  0
 34 69  1  0
 35 70  1  0
 35 71  1  0
M  END
> <Name>
Molecule

> <AbsoluteEnergy>
60.1432

> <Clean Energy>
225.967

> <ConfNumber>
61

> <MOL_NUMBER>
5

> <RelativeEnergy>
11.8411

> <POSE_NUMBER>
70

> <LibDockScore>
112.9658

> <HotSpots>
-6.13,-22.12,49.98,A,41,16
-12.93,-31.72,54.98,A,73,30
-9.53,-30.12,52.78,A,62,33

$$$$
Molecule
  SciTegic05072616053D

 71 75  0  0  0  0            999 V2000
    1.8596  -25.2303   46.8691 C   0  0  0  1  0  0
    0.9382  -24.3600   47.7452 C   0  0  0  1  0  0
    0.7279  -22.9651   47.1259 C   0  0  0  1  0  0
    1.4332  -24.2730   49.1712 C   0  0  0  1  0  0
    2.7607  -23.8210   49.3469 C   0  0  0  1  0  0
    3.3189  -23.6794   50.6212 C   0  0  0  1  0  0
    2.5545  -23.9870   51.7483 C   0  0  0  1  0  0
    1.2392  -24.4446   51.5982 C   0  0  0  1  0  0
    0.6445  -24.6136   50.3197 C   0  0  0  1  0  0
   -0.7945  -25.1447   50.2156 C   0  0  0  1  0  0
   -1.6030  -24.3420   49.1867 C   0  0  0  1  0  0
   -2.0743  -24.8908   48.2163 O   0  0  0  1  0  0
   -1.8017  -22.9863   49.3663 N   0  0  0  1  0  0
   -2.4515  -22.1198   48.3474 C   0  0  0  1  0  0
   -3.7522  -22.6473   47.9229 N   0  0  0  1  0  0
   -3.8702  -22.3757   46.4955 C   0  0  0  1  0  0
   -2.6292  -21.5796   46.1234 C   0  0  0  1  0  0
   -1.6475  -21.9266   47.1357 N   0  0  0  1  0  0
   -1.5940  -25.0365   51.5576 C   0  0  0  1  0  0
   -2.9959  -25.6644   51.4898 C   0  0  0  1  0  0
   -2.9012  -27.1080   51.1383 N   0  0  0  1  0  0
   -3.4903  -28.1134   51.9033 C   0  0  0  1  0  0
   -4.0304  -29.2662   51.2868 C   0  0  0  1  0  0
   -4.6215  -30.2832   52.0549 C   0  0  0  1  0  0
   -4.6894  -30.1647   53.4540 C   0  0  0  1  0  0
   -5.3217  -31.2562   54.2841 C   0  0  0  1  0  0
   -4.3494  -32.3730   54.6258 C   0  0  0  1  0  0
   -3.7120  -32.3056   55.6518 O   0  0  0  1  0  0
   -4.2235  -33.3986   53.7851 O   0  0  0  1  0  0
   -6.7799  -31.6237   54.0561 C   0  0  0  1  0  0
   -6.3815  -30.8862   55.3108 C   0  0  0  1  0  0
   -4.1596  -29.0229   54.0787 C   0  0  0  1  0  0
   -3.5617  -28.0099   53.3119 C   0  0  0  1  0  0
   -2.1218  -27.3980   49.9024 C   0  0  0  1  0  0
   -0.7543  -26.6782   49.9066 C   0  0  0  1  0  0
    2.8214  -24.7276   46.7676 H   0  0
    1.4075  -25.3337   45.8827 H   0  0
    1.9970  -26.2122   47.3220 H   0  0
   -0.0344  -24.8508   47.7791 H   0  0
    0.2843  -23.0854   46.1376 H   0  0
    1.6982  -22.4793   47.0225 H   0  0
    0.0745  -22.3640   47.7582 H   0  0
    3.3619  -23.5777   48.4709 H   0  0
    4.3454  -23.3307   50.7340 H   0  0
    2.9811  -23.8711   52.7446 H   0  0
    0.6552  -24.6777   52.4885 H   0  0
   -1.4727  -22.5393   50.2811 H   0  0
   -2.5673  -21.1624   48.8555 H   0  0
   -3.7901  -23.7026   48.0957 H   0  0
   -4.7635  -21.7824   46.3002 H   0  0
   -3.8911  -23.3121   45.9380 H   0  0
   -2.2739  -21.8811   45.1380 H   0  0
   -2.8445  -20.5117   46.1610 H   0  0
   -0.9583  -21.1199   47.2741 H   0  0
   -1.6923  -23.9850   51.8276 H   0  0
   -1.0262  -25.5279   52.3477 H   0  0
   -3.5880  -25.1479   50.7344 H   0  0
   -3.4855  -25.5607   52.4581 H   0  0
   -3.9875  -29.3667   50.2023 H   0  0
   -5.0289  -31.1672   51.5643 H   0  0
   -3.9642  -32.9671   52.8636 H   0  0
   -6.9613  -32.6807   54.2511 H   0  0
   -7.2506  -30.9596   53.3311 H   0  0
   -6.6403  -29.8288   55.2554 H   0  0
   -6.3494  -31.5499   56.1748 H   0  0
   -4.2130  -28.9232   55.1628 H   0  0
   -3.1473  -27.1326   53.8087 H   0  0
   -1.9596  -28.4732   49.8263 H   0  0
   -2.6939  -27.0729   49.0335 H   0  0
   -0.2840  -26.8241   48.9342 H   0  0
   -0.1105  -27.1642   50.6397 H   0  0
  1  2  1  0
  2  3  1  0
  2  4  1  0
  4  5  2  0
  4  9  1  0
  5  6  1  0
  6  7  2  0
  7  8  1  0
  8  9  2  0
  9 10  1  0
 10 11  1  0
 10 19  1  0
 10 35  1  0
 11 12  2  0
 11 13  1  0
 13 14  1  0
 14 15  1  0
 14 18  1  0
 15 16  1  0
 16 17  1  0
 17 18  1  0
 19 20  1  0
 20 21  1  0
 21 22  1  0
 21 34  1  0
 22 23  2  0
 22 33  1  0
 23 24  1  0
 24 25  2  0
 25 26  1  0
 25 32  1  0
 26 27  1  0
 26 30  1  0
 26 31  1  0
 27 28  2  0
 27 29  1  0
 30 31  1  0
 32 33  2  0
 34 35  1  0
  1 36  1  0
  1 37  1  0
  1 38  1  0
  2 39  1  0
  3 40  1  0
  3 41  1  0
  3 42  1  0
  5 43  1  0
  6 44  1  0
  7 45  1  0
  8 46  1  0
 13 47  1  0
 14 48  1  0
 15 49  1  0
 16 50  1  0
 16 51  1  0
 17 52  1  0
 17 53  1  0
 18 54  1  0
 19 55  1  0
 19 56  1  0
 20 57  1  0
 20 58  1  0
 23 59  1  0
 24 60  1  0
 29 61  1  0
 30 62  1  0
 30 63  1  0
 31 64  1  0
 31 65  1  0
 32 66  1  0
 33 67  1  0
 34 68  1  0
 34 69  1  0
 35 70  1  0
 35 71  1  0
M  END
> <Name>
Molecule

> <AbsoluteEnergy>
49.0862

> <Clean Energy>
225.967

> <ConfNumber>
2

> <MOL_NUMBER>
5

> <RelativeEnergy>
0.7841

> <POSE_NUMBER>
71

> <LibDockScore>
112.8814

> <HotSpots>
0.27,-24.92,46.38,A,19,3
1.67,-24.32,50.98,A,50,7
-4.93,-33.72,54.59,P,51,29

$$$$
Molecule
  SciTegic05072616053D

 71 75  0  0  0  0            999 V2000
   -3.3869  -22.6917   49.2873 C   0  0  0  1  0  0
   -1.9929  -23.3254   49.4517 C   0  0  0  1  0  0
   -0.9437  -22.6196   48.5706 C   0  0  0  1  0  0
   -2.0238  -24.8171   49.2100 C   0  0  0  1  0  0
   -2.2348  -25.2360   47.8768 C   0  0  0  1  0  0
   -2.2307  -26.5911   47.5305 C   0  0  0  1  0  0
   -2.0069  -27.5548   48.5155 C   0  0  0  1  0  0
   -1.8098  -27.1617   49.8454 C   0  0  0  1  0  0
   -1.8490  -25.7996   50.2385 C   0  0  0  1  0  0
   -1.7025  -25.4341   51.7240 C   0  0  0  1  0  0
   -0.4104  -24.6514   51.9819 C   0  0  0  1  0  0
   -0.4398  -23.6319   52.6348 O   0  0  0  1  0  0
    0.7938  -25.0959   51.4763 N   0  0  0  1  0  0
    1.9639  -24.1893   51.3815 C   0  0  0  1  0  0
    3.1494  -24.9263   50.9330 N   0  0  0  1  0  0
    3.7997  -24.0961   49.9369 C   0  0  0  1  0  0
    2.6603  -23.3150   49.3163 C   0  0  0  1  0  0
    1.7072  -23.1265   50.3992 N   0  0  0  1  0  0
   -1.6543  -26.6476   52.7007 C   0  0  0  1  0  0
   -2.9517  -27.4793   52.8782 C   0  0  0  1  0  0
   -4.2507  -26.8237   52.4988 N   0  0  0  1  0  0
   -5.4486  -27.5521   52.5541 C   0  0  0  1  0  0
   -6.6951  -26.9337   52.2838 C   0  0  0  1  0  0
   -7.8938  -27.6630   52.3341 C   0  0  0  1  0  0
   -7.8774  -29.0302   52.6543 C   0  0  0  1  0  0
   -9.1660  -29.8152   52.7011 C   0  0  0  1  0  0
   -9.5907  -30.3292   51.3359 C   0  0  0  1  0  0
  -10.4614  -29.7452   50.7318 O   0  0  0  1  0  0
   -8.9920  -31.4109   50.8395 O   0  0  0  1  0  0
  -10.2501  -29.4060   53.6863 C   0  0  0  1  0  0
   -9.4721  -30.6780   53.9156 C   0  0  0  1  0  0
   -6.6531  -29.6616   52.9258 C   0  0  0  1  0  0
   -5.4547  -28.9318   52.8780 C   0  0  0  1  0  0
   -4.2618  -25.3988   52.0385 C   0  0  0  1  0  0
   -2.9389  -24.6514   52.2394 C   0  0  0  1  0  0
   -3.6810  -22.7650   48.2403 H   0  0
   -3.3256  -21.6395   49.5651 H   0  0
   -4.1142  -23.2037   49.9174 H   0  0
   -1.6901  -23.1801   50.4887 H   0  0
   -0.9021  -21.5680   48.8542 H   0  0
   -1.2575  -22.6935   47.5294 H   0  0
    0.0349  -23.0816   48.7006 H   0  0
   -2.4042  -24.4877   47.1026 H   0  0
   -2.4013  -26.8931   46.4972 H   0  0
   -1.9856  -28.6118   48.2500 H   0  0
   -1.6208  -27.9250   50.6002 H   0  0
    0.8850  -26.1101   51.1476 H   0  0
    2.1324  -23.7645   52.3711 H   0  0
    3.8106  -25.0885   51.7585 H   0  0
    4.2820  -24.7177   49.1825 H   0  0
    4.5042  -23.4151   50.4145 H   0  0
    3.0195  -22.3492   48.9609 H   0  0
    2.2043  -23.8929   48.5124 H   0  0
    0.7092  -23.2131   50.0231 H   0  0
   -0.8619  -27.3196   52.3712 H   0  0
   -1.3458  -26.2855   53.6814 H   0  0
   -3.0204  -27.7906   53.9205 H   0  0
   -2.8525  -28.3970   52.2985 H   0  0
   -6.7235  -25.8734   52.0325 H   0  0
   -8.8408  -27.1660   52.1238 H   0  0
   -9.1323  -32.1584   51.5634 H   0  0
  -11.2460  -29.6088   53.2923 H   0  0
   -9.9119  -28.6035   54.3418 H   0  0
   -8.7193  -30.5545   54.6941 H   0  0
  -10.0525  -31.5595   53.6433 H   0  0
   -6.6330  -30.7226   53.1747 H   0  0
   -4.5123  -29.4352   53.0938 H   0  0
   -5.0488  -24.8651   52.5713 H   0  0
   -4.5185  -25.3762   50.9794 H   0  0
   -2.9934  -23.6940   51.7212 H   0  0
   -2.8088  -24.4451   53.3018 H   0  0
  1  2  1  0
  2  3  1  0
  2  4  1  0
  4  5  2  0
  4  9  1  0
  5  6  1  0
  6  7  2  0
  7  8  1  0
  8  9  2  0
  9 10  1  0
 10 11  1  0
 10 19  1  0
 10 35  1  0
 11 12  2  0
 11 13  1  0
 13 14  1  0
 14 15  1  0
 14 18  1  0
 15 16  1  0
 16 17  1  0
 17 18  1  0
 19 20  1  0
 20 21  1  0
 21 22  1  0
 21 34  1  0
 22 23  2  0
 22 33  1  0
 23 24  1  0
 24 25  2  0
 25 26  1  0
 25 32  1  0
 26 27  1  0
 26 30  1  0
 26 31  1  0
 27 28  2  0
 27 29  1  0
 30 31  1  0
 32 33  2  0
 34 35  1  0
  1 36  1  0
  1 37  1  0
  1 38  1  0
  2 39  1  0
  3 40  1  0
  3 41  1  0
  3 42  1  0
  5 43  1  0
  6 44  1  0
  7 45  1  0
  8 46  1  0
 13 47  1  0
 14 48  1  0
 15 49  1  0
 16 50  1  0
 16 51  1  0
 17 52  1  0
 17 53  1  0
 18 54  1  0
 19 55  1  0
 19 56  1  0
 20 57  1  0
 20 58  1  0
 23 59  1  0
 24 60  1  0
 29 61  1  0
 30 62  1  0
 30 63  1  0
 31 64  1  0
 31 65  1  0
 32 66  1  0
 33 67  1  0
 34 68  1  0
 34 69  1  0
 35 70  1  0
 35 71  1  0
M  END
> <Name>
Molecule

> <AbsoluteEnergy>
50.2796

> <Clean Energy>
225.967

> <ConfNumber>
6

> <MOL_NUMBER>
5

> <RelativeEnergy>
1.97745

> <POSE_NUMBER>
72

> <LibDockScore>
112.8592

> <HotSpots>
-1.93,-29.12,49.19,A,34,6
0.87,-24.32,52.78,A,63,14
-10.93,-30.92,53.98,A,68,30

$$$$
Molecule
  SciTegic05072616053D

 71 75  0  0  0  0            999 V2000
   -6.5667  -23.2463   49.9621 C   0  0  0  1  0  0
   -5.0596  -23.5778   49.8489 C   0  0  0  1  0  0
   -4.2534  -22.3512   50.3207 C   0  0  0  1  0  0
   -4.5904  -24.0844   48.4929 C   0  0  0  1  0  0
   -5.5057  -23.9622   47.4148 C   0  0  0  1  0  0
   -5.1869  -24.3753   46.1199 C   0  0  0  1  0  0
   -3.9308  -24.9132   45.8594 C   0  0  0  1  0  0
   -3.0026  -25.0409   46.8966 C   0  0  0  1  0  0
   -3.2893  -24.6600   48.2363 C   0  0  0  1  0  0
   -2.1533  -24.8713   49.2723 C   0  0  0  1  0  0
   -1.0024  -23.8977   48.9645 C   0  0  0  1  0  0
   -1.0821  -23.1189   48.0386 O   0  0  0  1  0  0
    0.1428  -23.8880   49.7349 N   0  0  0  1  0  0
    1.3182  -23.0680   49.3524 C   0  0  0  1  0  0
    2.2931  -23.0286   50.4459 N   0  0  0  1  0  0
    3.6000  -23.1526   49.8302 C   0  0  0  1  0  0
    3.3412  -24.0023   48.6031 C   0  0  0  1  0  0
    1.9890  -23.6591   48.1860 N   0  0  0  1  0  0
   -1.5709  -26.3292   49.2335 C   0  0  0  1  0  0
   -2.6072  -27.4207   49.5765 C   0  0  0  1  0  0
   -3.2546  -27.1752   50.9024 N   0  0  0  1  0  0
   -3.4614  -28.1900   51.8363 C   0  0  0  1  0  0
   -2.4836  -29.1841   52.0732 C   0  0  0  1  0  0
   -2.7084  -30.2050   53.0114 C   0  0  0  1  0  0
   -3.9100  -30.2469   53.7386 C   0  0  0  1  0  0
   -4.1493  -31.3436   54.7484 C   0  0  0  1  0  0
   -4.3774  -32.7001   54.1028 C   0  0  0  1  0  0
   -5.5074  -33.0468   53.8434 O   0  0  0  1  0  0
   -3.3257  -33.4737   53.8397 O   0  0  0  1  0  0
   -4.8961  -31.0241   56.0351 C   0  0  0  1  0  0
   -3.4137  -31.3012   56.0793 C   0  0  0  1  0  0
   -4.8882  -29.2627   53.5174 C   0  0  0  1  0  0
   -4.6666  -28.2453   52.5746 C   0  0  0  1  0  0
   -3.6842  -25.7686   51.1682 C   0  0  0  1  0  0
   -2.5832  -24.7634   50.7667 C   0  0  0  1  0  0
   -6.8084  -22.3907   49.3315 H   0  0
   -6.8222  -23.0225   50.9978 H   0  0
   -7.1465  -24.1077   49.6306 H   0  0
   -4.8787  -24.4351   50.4973 H   0  0
   -4.4961  -22.1225   51.3584 H   0  0
   -4.4823  -21.4906   49.6921 H   0  0
   -3.1892  -22.5742   50.2450 H   0  0
   -6.4892  -23.5320   47.6041 H   0  0
   -5.9181  -24.2769   45.3176 H   0  0
   -3.6714  -25.2338   44.8504 H   0  0
   -2.0180  -25.4495   46.6691 H   0  0
    0.1834  -24.4824   50.6237 H   0  0
    0.9618  -22.0634   49.1247 H   0  0
    2.2219  -22.0950   50.9638 H   0  0
    4.2882  -23.6652   50.5023 H   0  0
    3.9731  -22.1719   49.5350 H   0  0
    4.0514  -23.7476   47.8164 H   0  0
    3.3957  -25.0597   48.8621 H   0  0
    1.4697  -24.5424   47.8779 H   0  0
   -1.1722  -26.5235   48.2378 H   0  0
   -0.7421  -26.3980   49.9381 H   0  0
   -3.3751  -27.4408   48.8032 H   0  0
   -2.1125  -28.3918   49.5960 H   0  0
   -1.5442  -29.1577   51.5210 H   0  0
   -1.9475  -30.9679   53.1760 H   0  0
   -2.8359  -33.5930   54.7608 H   0  0
   -5.4759  -31.8787   56.3838 H   0  0
   -5.1092  -29.9584   56.1190 H   0  0
   -2.8358  -30.3834   56.1879 H   0  0
   -3.2025  -32.3039   56.4510 H   0  0
   -5.8219  -29.2888   54.0792 H   0  0
   -5.4335  -27.4885   52.4098 H   0  0
   -3.9044  -25.6541   52.2296 H   0  0
   -4.5890  -25.5560   50.5987 H   0  0
   -2.9428  -23.7526   50.9593 H   0  0
   -1.7098  -24.9276   51.3979 H   0  0
  1  2  1  0
  2  3  1  0
  2  4  1  0
  4  5  2  0
  4  9  1  0
  5  6  1  0
  6  7  2  0
  7  8  1  0
  8  9  2  0
  9 10  1  0
 10 11  1  0
 10 19  1  0
 10 35  1  0
 11 12  2  0
 11 13  1  0
 13 14  1  0
 14 15  1  0
 14 18  1  0
 15 16  1  0
 16 17  1  0
 17 18  1  0
 19 20  1  0
 20 21  1  0
 21 22  1  0
 21 34  1  0
 22 23  2  0
 22 33  1  0
 23 24  1  0
 24 25  2  0
 25 26  1  0
 25 32  1  0
 26 27  1  0
 26 30  1  0
 26 31  1  0
 27 28  2  0
 27 29  1  0
 30 31  1  0
 32 33  2  0
 34 35  1  0
  1 36  1  0
  1 37  1  0
  1 38  1  0
  2 39  1  0
  3 40  1  0
  3 41  1  0
  3 42  1  0
  5 43  1  0
  6 44  1  0
  7 45  1  0
  8 46  1  0
 13 47  1  0
 14 48  1  0
 15 49  1  0
 16 50  1  0
 16 51  1  0
 17 52  1  0
 17 53  1  0
 18 54  1  0
 19 55  1  0
 19 56  1  0
 20 57  1  0
 20 58  1  0
 23 59  1  0
 24 60  1  0
 29 61  1  0
 30 62  1  0
 30 63  1  0
 31 64  1  0
 31 65  1  0
 32 66  1  0
 33 67  1  0
 34 68  1  0
 34 69  1  0
 35 70  1  0
 35 71  1  0
M  END
> <Name>
Molecule

> <AbsoluteEnergy>
59.1572

> <Clean Energy>
225.967

> <ConfNumber>
52

> <MOL_NUMBER>
5

> <RelativeEnergy>
10.8551

> <POSE_NUMBER>
73

> <LibDockScore>
112.0703

> <HotSpots>
-4.93,-23.52,47.59,A,26,5
4.07,-23.72,49.78,A,37,16
-4.13,-31.12,56.59,A,79,30

$$$$
Molecule
  SciTegic05072616053D

 71 75  0  0  0  0            999 V2000
    1.2780  -24.3401   51.8075 C   0  0  0  1  0  0
   -0.1122  -24.0371   52.3994 C   0  0  0  1  0  0
    0.0025  -23.3394   53.7694 C   0  0  0  1  0  0
   -0.9823  -25.2756   52.4590 C   0  0  0  1  0  0
   -0.5991  -26.2558   53.3985 C   0  0  0  1  0  0
   -1.3184  -27.4448   53.5444 C   0  0  0  1  0  0
   -2.4421  -27.6749   52.7454 C   0  0  0  1  0  0
   -2.8413  -26.7175   51.8020 C   0  0  0  1  0  0
   -2.1337  -25.4985   51.6286 C   0  0  0  1  0  0
   -2.5914  -24.4698   50.5773 C   0  0  0  1  0  0
   -1.3989  -24.0876   49.6993 C   0  0  0  1  0  0
   -1.1669  -22.9339   49.4189 O   0  0  0  1  0  0
   -0.5932  -25.1017   49.2203 N   0  0  0  1  0  0
    0.6548  -24.8390   48.4803 C   0  0  0  1  0  0
    1.3179  -26.0952   48.1551 N   0  0  0  1  0  0
    2.1569  -25.7885   47.0102 C   0  0  0  1  0  0
    1.4282  -24.6624   46.2854 C   0  0  0  1  0  0
    0.3621  -24.2368   47.1860 N   0  0  0  1  0  0
   -3.2990  -23.2797   51.3127 C   0  0  0  1  0  0
   -4.6024  -23.7116   52.0487 C   0  0  0  1  0  0
   -5.3375  -24.7482   51.2595 N   0  0  0  1  0  0
   -6.0418  -25.8238   51.7933 C   0  0  0  1  0  0
   -5.4831  -26.6378   52.8053 C   0  0  0  1  0  0
   -6.0604  -27.8789   53.1113 C   0  0  0  1  0  0
   -7.2149  -28.3030   52.4294 C   0  0  0  1  0  0
   -7.7010  -29.7249   52.5401 C   0  0  0  1  0  0
   -6.7386  -30.6763   51.8201 C   0  0  0  1  0  0
   -7.1834  -31.6351   51.2331 O   0  0  0  1  0  0
   -5.4228  -30.4271   51.8280 O   0  0  0  1  0  0
   -8.4149  -30.2162   53.7889 C   0  0  0  1  0  0
   -9.1954  -29.9990   52.5141 C   0  0  0  1  0  0
   -7.8941  -27.4060   51.5900 C   0  0  0  1  0  0
   -7.3163  -26.1671   51.2832 C   0  0  0  1  0  0
   -5.1152  -24.6300   49.8004 C   0  0  0  1  0  0
   -3.6423  -24.9684   49.5007 C   0  0  0  1  0  0
    1.8201  -24.9838   52.5002 H   0  0
    1.8219  -23.4022   51.6946 H   0  0
    1.1785  -24.8327   50.8403 H   0  0
   -0.6107  -23.3407   51.7251 H   0  0
    0.5554  -22.4087   53.6425 H   0  0
    0.5537  -23.9903   54.4481 H   0  0
   -0.9887  -23.1327   54.1731 H   0  0
    0.2766  -26.0819   54.0238 H   0  0
   -1.0051  -28.1886   54.2770 H   0  0
   -3.0086  -28.5996   52.8559 H   0  0
   -3.7182  -26.9141   51.1852 H   0  0
   -0.8856  -26.1164   49.3927 H   0  0
    1.2660  -24.1919   49.1094 H   0  0
    1.9225  -26.4152   48.9778 H   0  0
    2.2384  -26.6589   46.3592 H   0  0
    3.1361  -25.4448   47.3435 H   0  0
    1.0020  -25.0338   45.3534 H   0  0
    2.1131  -23.8346   46.1016 H   0  0
    0.3623  -23.1702   47.2710 H   0  0
   -2.6085  -22.8501   52.0384 H   0  0
   -3.5436  -22.5064   50.5845 H   0  0
   -5.2451  -22.8420   52.1860 H   0  0
   -4.3461  -24.1192   53.0266 H   0  0
   -4.6011  -26.2999   53.3493 H   0  0
   -5.6147  -28.5140   53.8768 H   0  0
   -5.1706  -30.3628   52.8452 H   0  0
   -8.5766  -29.4077   54.5019 H   0  0
   -8.2241  -31.2743   53.9683 H   0  0
   -9.4211  -30.9416   52.0154 H   0  0
   -9.7721  -29.0747   52.5483 H   0  0
   -8.8676  -27.6724   51.1784 H   0  0
   -7.8523  -25.4627   50.6471 H   0  0
   -5.7647  -25.3289   49.2734 H   0  0
   -5.3281  -23.6107   49.4782 H   0  0
   -3.3793  -24.5401   48.5335 H   0  0
   -3.5505  -26.0497   49.3982 H   0  0
  1  2  1  0
  2  3  1  0
  2  4  1  0
  4  5  2  0
  4  9  1  0
  5  6  1  0
  6  7  2  0
  7  8  1  0
  8  9  2  0
  9 10  1  0
 10 11  1  0
 10 19  1  0
 10 35  1  0
 11 12  2  0
 11 13  1  0
 13 14  1  0
 14 15  1  0
 14 18  1  0
 15 16  1  0
 16 17  1  0
 17 18  1  0
 19 20  1  0
 20 21  1  0
 21 22  1  0
 21 34  1  0
 22 23  2  0
 22 33  1  0
 23 24  1  0
 24 25  2  0
 25 26  1  0
 25 32  1  0
 26 27  1  0
 26 30  1  0
 26 31  1  0
 27 28  2  0
 27 29  1  0
 30 31  1  0
 32 33  2  0
 34 35  1  0
  1 36  1  0
  1 37  1  0
  1 38  1  0
  2 39  1  0
  3 40  1  0
  3 41  1  0
  3 42  1  0
  5 43  1  0
  6 44  1  0
  7 45  1  0
  8 46  1  0
 13 47  1  0
 14 48  1  0
 15 49  1  0
 16 50  1  0
 16 51  1  0
 17 52  1  0
 17 53  1  0
 18 54  1  0
 19 55  1  0
 19 56  1  0
 20 57  1  0
 20 58  1  0
 23 59  1  0
 24 60  1  0
 29 61  1  0
 30 62  1  0
 30 63  1  0
 31 64  1  0
 31 65  1  0
 32 66  1  0
 33 67  1  0
 34 68  1  0
 34 69  1  0
 35 70  1  0
 35 71  1  0
M  END
> <Name>
Molecule

> <AbsoluteEnergy>
64.768

> <Clean Energy>
225.967

> <ConfNumber>
87

> <MOL_NUMBER>
5

> <RelativeEnergy>
16.4659

> <POSE_NUMBER>
74

> <LibDockScore>
111.4365

> <HotSpots>
0.87,-24.32,52.78,A,63,1
0.27,-24.92,46.38,A,19,17
-7.93,-28.32,52.38,A,59,32

$$$$
Molecule
  SciTegic05072616053D

 71 75  0  0  0  0            999 V2000
   -2.0302  -24.0598   47.2548 C   0  0  0  1  0  0
   -2.9183  -25.2855   47.5511 C   0  0  0  1  0  0
   -3.8245  -25.6145   46.3488 C   0  0  0  1  0  0
   -3.7209  -25.1230   48.8254 C   0  0  0  1  0  0
   -4.7135  -24.1179   48.8160 C   0  0  0  1  0  0
   -5.5719  -23.9345   49.9050 C   0  0  0  1  0  0
   -5.4617  -24.7681   51.0224 C   0  0  0  1  0  0
   -4.4570  -25.7452   51.0686 C   0  0  0  1  0  0
   -3.5345  -25.9214   50.0031 C   0  0  0  1  0  0
   -2.3916  -26.9436   50.1407 C   0  0  0  1  0  0
   -1.0582  -26.3630   49.6580 C   0  0  0  1  0  0
   -0.4273  -26.9163   48.7850 O   0  0  0  1  0  0
   -0.5681  -25.2090   50.2358 N   0  0  0  1  0  0
    0.6732  -24.5660   49.7503 C   0  0  0  1  0  0
    0.9953  -23.3354   50.4759 N   0  0  0  1  0  0
    2.4311  -23.1956   50.2897 C   0  0  0  1  0  0
    2.9657  -24.6197   50.2032 C   0  0  0  1  0  0
    1.7983  -25.4644   49.9810 N   0  0  0  1  0  0
   -2.7921  -28.2508   49.3900 C   0  0  0  1  0  0
   -4.0365  -28.9388   50.0071 C   0  0  0  1  0  0
   -3.9837  -28.9484   51.5038 N   0  0  0  1  0  0
   -5.1063  -29.0864   52.3156 C   0  0  0  1  0  0
   -6.3926  -28.7853   51.8196 C   0  0  0  1  0  0
   -7.5108  -28.8094   52.6659 C   0  0  0  1  0  0
   -7.3633  -29.1233   54.0295 C   0  0  0  1  0  0
   -8.5383  -29.0166   54.9775 C   0  0  0  1  0  0
   -9.3119  -30.3171   55.1937 C   0  0  0  1  0  0
  -10.2718  -30.5595   54.4999 O   0  0  0  1  0  0
   -8.9391  -31.1698   56.1526 O   0  0  0  1  0  0
   -8.3460  -28.1040   56.1805 C   0  0  0  1  0  0
   -9.3003  -27.7003   55.0858 C   0  0  0  1  0  0
   -6.1010  -29.5098   54.5147 C   0  0  0  1  0  0
   -4.9833  -29.5026   53.6630 C   0  0  0  1  0  0
   -2.6348  -28.7293   52.0818 C   0  0  0  1  0  0
   -2.0519  -27.3756   51.6234 C   0  0  0  1  0  0
   -2.6709  -23.2053   47.0370 H   0  0
   -1.4137  -24.2746   46.3820 H   0  0
   -1.3953  -23.8390   48.1129 H   0  0
   -2.2514  -26.1325   47.7123 H   0  0
   -3.1974  -25.8202   45.4813 H   0  0
   -4.4547  -24.7509   46.1363 H   0  0
   -4.4458  -26.4818   46.5722 H   0  0
   -4.8124  -23.4727   47.9431 H   0  0
   -6.3234  -23.1453   49.8828 H   0  0
   -6.1555  -24.6585   51.8559 H   0  0
   -4.3819  -26.3871   51.9463 H   0  0
   -1.0985  -24.7689   51.0543 H   0  0
    0.5093  -24.3403   48.6966 H   0  0
    0.4831  -22.5036   50.0393 H   0  0
    2.8724  -22.6845   51.1454 H   0  0
    2.6380  -22.6639   49.3609 H   0  0
    3.4505  -24.8933   51.1403 H   0  0
    3.6547  -24.7077   49.3632 H   0  0
    1.9550  -26.0810   49.1207 H   0  0
   -3.0000  -28.0120   48.3470 H   0  0
   -1.9538  -28.9470   49.4149 H   0  0
   -4.0945  -29.9657   49.6463 H   0  0
   -4.9338  -28.4101   49.6856 H   0  0
   -6.5186  -28.5312   50.7671 H   0  0
   -8.4991  -28.5838   52.2652 H   0  0
   -8.9468  -30.5966   57.0323 H   0  0
   -7.4068  -27.5543   56.1192 H   0  0
   -8.8738  -28.4815   57.0563 H   0  0
  -10.3384  -27.8627   55.3759 H   0  0
   -8.8706  -26.9365   54.4377 H   0  0
   -5.9893  -29.8159   55.5548 H   0  0
   -4.0126  -29.8205   54.0434 H   0  0
   -2.7035  -28.7411   53.1696 H   0  0
   -1.9710  -29.5328   51.7626 H   0  0
   -0.9682  -27.4115   51.7347 H   0  0
   -2.4072  -26.6000   52.3019 H   0  0
  1  2  1  0
  2  3  1  0
  2  4  1  0
  4  5  2  0
  4  9  1  0
  5  6  1  0
  6  7  2  0
  7  8  1  0
  8  9  2  0
  9 10  1  0
 10 11  1  0
 10 19  1  0
 10 35  1  0
 11 12  2  0
 11 13  1  0
 13 14  1  0
 14 15  1  0
 14 18  1  0
 15 16  1  0
 16 17  1  0
 17 18  1  0
 19 20  1  0
 20 21  1  0
 21 22  1  0
 21 34  1  0
 22 23  2  0
 22 33  1  0
 23 24  1  0
 24 25  2  0
 25 26  1  0
 25 32  1  0
 26 27  1  0
 26 30  1  0
 26 31  1  0
 27 28  2  0
 27 29  1  0
 30 31  1  0
 32 33  2  0
 34 35  1  0
  1 36  1  0
  1 37  1  0
  1 38  1  0
  2 39  1  0
  3 40  1  0
  3 41  1  0
  3 42  1  0
  5 43  1  0
  6 44  1  0
  7 45  1  0
  8 46  1  0
 13 47  1  0
 14 48  1  0
 15 49  1  0
 16 50  1  0
 16 51  1  0
 17 52  1  0
 17 53  1  0
 18 54  1  0
 19 55  1  0
 19 56  1  0
 20 57  1  0
 20 58  1  0
 23 59  1  0
 24 60  1  0
 29 61  1  0
 30 62  1  0
 30 63  1  0
 31 64  1  0
 31 65  1  0
 32 66  1  0
 33 67  1  0
 34 68  1  0
 34 69  1  0
 35 70  1  0
 35 71  1  0
M  END
> <Name>
Molecule

> <AbsoluteEnergy>
57.6598

> <Clean Energy>
225.967

> <ConfNumber>
39

> <MOL_NUMBER>
5

> <RelativeEnergy>
9.35762

> <POSE_NUMBER>
75

> <LibDockScore>
111.3233

> <HotSpots>
-2.93,-26.32,45.98,A,15,3
2.67,-22.92,49.98,A,39,16
-8.73,-28.12,54.38,A,70,31

$$$$
Molecule
  SciTegic05072616053D

 71 75  0  0  0  0            999 V2000
   -4.5882  -25.0113   45.7855 C   0  0  0  1  0  0
   -3.4666  -25.2379   46.8156 C   0  0  0  1  0  0
   -2.4267  -26.2565   46.3100 C   0  0  0  1  0  0
   -2.8330  -23.9344   47.2464 C   0  0  0  1  0  0
   -2.0294  -23.2834   46.2832 C   0  0  0  1  0  0
   -1.3808  -22.0783   46.5706 C   0  0  0  1  0  0
   -1.5264  -21.4989   47.8322 C   0  0  0  1  0  0
   -2.3250  -22.1220   48.8014 C   0  0  0  1  0  0
   -3.0000  -23.3436   48.5426 C   0  0  0  1  0  0
   -3.8723  -23.9742   49.6393 C   0  0  0  1  0  0
   -3.2350  -25.2858   50.1390 C   0  0  0  1  0  0
   -3.8252  -26.3346   50.0155 O   0  0  0  1  0  0
   -1.9873  -25.2763   50.7335 N   0  0  0  1  0  0
   -1.5969  -26.1515   51.8815 C   0  0  0  1  0  0
   -2.2427  -25.8706   53.1675 N   0  0  0  1  0  0
   -1.9284  -27.0491   53.9599 C   0  0  0  1  0  0
   -1.8086  -28.1935   52.9579 C   0  0  0  1  0  0
   -1.8340  -27.5750   51.6351 N   0  0  0  1  0  0
   -5.3335  -24.1907   49.0819 C   0  0  0  1  0  0
   -6.4653  -24.1960   50.1405 C   0  0  0  1  0  0
   -5.9160  -24.6273   51.4478 N   0  0  0  1  0  0
   -6.1806  -25.8777   51.9969 C   0  0  0  1  0  0
   -7.4088  -26.5424   51.7782 C   0  0  0  1  0  0
   -7.5935  -27.8649   52.2182 C   0  0  0  1  0  0
   -6.5553  -28.5349   52.8917 C   0  0  0  1  0  0
   -6.6961  -29.9812   53.2895 C   0  0  0  1  0  0
   -6.8577  -30.1784   54.7887 C   0  0  0  1  0  0
   -7.9641  -30.3337   55.2507 O   0  0  0  1  0  0
   -5.7721  -30.1775   55.5633 O   0  0  0  1  0  0
   -7.3504  -30.9625   52.3294 C   0  0  0  1  0  0
   -5.8556  -31.0019   52.5356 C   0  0  0  1  0  0
   -5.3670  -27.8510   53.1877 C   0  0  0  1  0  0
   -5.1896  -26.5330   52.7592 C   0  0  0  1  0  0
   -4.9489  -23.6491   52.0202 C   0  0  0  1  0  0
   -4.0542  -23.0549   50.9037 C   0  0  0  1  0  0
   -5.0772  -25.9657   45.5902 H   0  0
   -4.1408  -24.6475   44.8605 H   0  0
   -5.3120  -24.2886   46.1622 H   0  0
   -3.9228  -25.6727   47.7049 H   0  0
   -1.9982  -25.8818   45.3804 H   0  0
   -2.9346  -27.2000   46.1101 H   0  0
   -1.6427  -26.4022   47.0531 H   0  0
   -1.9127  -23.7299   45.2957 H   0  0
   -0.7646  -21.5938   45.8132 H   0  0
   -1.0193  -20.5622   48.0637 H   0  0
   -2.4305  -21.6555   49.7808 H   0  0
   -1.2538  -24.5995   50.3477 H   0  0
   -0.5362  -25.9113   51.9538 H   0  0
   -1.8143  -24.9981   53.6148 H   0  0
   -2.7358  -27.2544   54.6628 H   0  0
   -0.9799  -26.9088   54.4784 H   0  0
   -2.6539  -28.8730   53.0666 H   0  0
   -0.8645  -28.7179   53.1050 H   0  0
   -1.0521  -27.9787   51.0265 H   0  0
   -5.5463  -23.4089   48.3528 H   0  0
   -5.3630  -25.1363   48.5405 H   0  0
   -6.8799  -23.1923   50.2344 H   0  0
   -7.2503  -24.8862   49.8314 H   0  0
   -8.2192  -26.0255   51.2643 H   0  0
   -8.5415  -28.3716   52.0375 H   0  0
   -5.3005  -29.2592   55.3713 H   0  0
   -7.6139  -30.4841   51.3861 H   0  0
   -7.8517  -31.7698   52.8633 H   0  0
   -5.5600  -31.8303   53.1794 H   0  0
   -5.3222  -30.5431   51.7031 H   0  0
   -4.5798  -28.3491   53.7536 H   0  0
   -4.2727  -26.0031   53.0173 H   0  0
   -5.4971  -22.8440   52.5096 H   0  0
   -4.3208  -24.1501   52.7568 H   0  0
   -3.0716  -22.8392   51.3232 H   0  0
   -4.4801  -22.1030   50.5865 H   0  0
  1  2  1  0
  2  3  1  0
  2  4  1  0
  4  5  2  0
  4  9  1  0
  5  6  1  0
  6  7  2  0
  7  8  1  0
  8  9  2  0
  9 10  1  0
 10 11  1  0
 10 19  1  0
 10 35  1  0
 11 12  2  0
 11 13  1  0
 13 14  1  0
 14 15  1  0
 14 18  1  0
 15 16  1  0
 16 17  1  0
 17 18  1  0
 19 20  1  0
 20 21  1  0
 21 22  1  0
 21 34  1  0
 22 23  2  0
 22 33  1  0
 23 24  1  0
 24 25  2  0
 25 26  1  0
 25 32  1  0
 26 27  1  0
 26 30  1  0
 26 31  1  0
 27 28  2  0
 27 29  1  0
 30 31  1  0
 32 33  2  0
 34 35  1  0
  1 36  1  0
  1 37  1  0
  1 38  1  0
  2 39  1  0
  3 40  1  0
  3 41  1  0
  3 42  1  0
  5 43  1  0
  6 44  1  0
  7 45  1  0
  8 46  1  0
 13 47  1  0
 14 48  1  0
 15 49  1  0
 16 50  1  0
 16 51  1  0
 17 52  1  0
 17 53  1  0
 18 54  1  0
 19 55  1  0
 19 56  1  0
 20 57  1  0
 20 58  1  0
 23 59  1  0
 24 60  1  0
 29 61  1  0
 30 62  1  0
 30 63  1  0
 31 64  1  0
 31 65  1  0
 32 66  1  0
 33 67  1  0
 34 68  1  0
 34 69  1  0
 35 70  1  0
 35 71  1  0
M  END
> <Name>
Molecule

> <AbsoluteEnergy>
59.0036

> <Clean Energy>
225.967

> <ConfNumber>
48

> <MOL_NUMBER>
5

> <RelativeEnergy>
10.7014

> <POSE_NUMBER>
76

> <LibDockScore>
110.6199

> <HotSpots>
-2.93,-26.32,45.98,A,15,1
-9.33,-29.92,51.19,A,52,30
-5.13,-23.32,51.38,A,54,34

$$$$
Molecule
  SciTegic05072616053D

 71 75  0  0  0  0            999 V2000
   -7.9191  -28.6853   56.3545 C   0  0  0  1  0  0
   -9.0858  -28.4982   55.3642 C   0  0  0  1  0  0
   -9.1740  -27.0870   54.7658 C   0  0  0  1  0  0
   -9.3219  -29.6912   54.4409 C   0  0  0  1  0  0
  -10.5413  -30.3708   54.6939 C   0  0  0  1  0  0
  -10.9503  -31.4745   53.9425 C   0  0  0  1  0  0
  -10.1407  -31.9369   52.9102 C   0  0  0  1  0  0
   -8.9245  -31.3014   52.6403 C   0  0  0  1  0  0
   -8.4626  -30.1793   53.3857 C   0  0  0  1  0  0
   -7.0912  -29.5782   53.0071 C   0  0  0  1  0  0
   -7.2897  -28.2016   52.3445 C   0  0  0  1  0  0
   -8.3257  -27.9776   51.7586 O   0  0  0  1  0  0
   -6.3230  -27.2147   52.3940 N   0  0  0  1  0  0
   -6.3315  -26.0409   51.4875 C   0  0  0  1  0  0
   -6.3213  -24.7868   52.2340 N   0  0  0  1  0  0
   -5.8929  -23.7947   51.2631 C   0  0  0  1  0  0
   -5.0090  -24.5618   50.2871 C   0  0  0  1  0  0
   -5.1163  -25.9668   50.6702 N   0  0  0  1  0  0
   -6.1326  -29.6309   54.2570 C   0  0  0  1  0  0
   -4.6615  -30.0181   53.9767 C   0  0  0  1  0  0
   -4.2032  -29.4012   52.7088 N   0  0  0  1  0  0
   -3.2552  -28.3840   52.6371 C   0  0  0  1  0  0
   -2.8270  -27.8812   51.3879 C   0  0  0  1  0  0
   -1.9418  -26.7944   51.3195 C   0  0  0  1  0  0
   -1.4642  -26.1944   52.4978 C   0  0  0  1  0  0
   -0.5657  -24.9783   52.4287 C   0  0  0  1  0  0
   -0.9661  -24.0044   51.3114 C   0  0  0  1  0  0
   -2.0529  -23.4704   51.3601 O   0  0  0  1  0  0
   -0.1260  -23.7502   50.3040 O   0  0  0  1  0  0
    0.9049  -25.1410   52.7854 C   0  0  0  1  0  0
   -0.0185  -24.4056   53.7272 C   0  0  0  1  0  0
   -1.8481  -26.7160   53.7448 C   0  0  0  1  0  0
   -2.7304  -27.8030   53.8145 C   0  0  0  1  0  0
   -4.9323  -29.8823   51.5072 C   0  0  0  1  0  0
   -6.3463  -30.3929   51.8790 C   0  0  0  1  0  0
   -8.0468  -27.9553   57.1538 H   0  0
   -6.9964  -28.4543   55.8221 H   0  0
   -7.8935  -29.6989   56.7546 H   0  0
  -10.0009  -28.5259   55.9557 H   0  0
   -8.2289  -26.8847   54.2619 H   0  0
   -9.2791  -26.3856   55.5935 H   0  0
  -10.0106  -26.9983   54.0727 H   0  0
  -11.1813  -30.0191   55.5031 H   0  0
  -11.8960  -31.9695   54.1631 H   0  0
  -10.4537  -32.7931   52.3127 H   0  0
   -8.3054  -31.6800   51.8270 H   0  0
   -5.5372  -27.3011   53.1151 H   0  0
   -7.2302  -26.1673   50.8837 H   0  0
   -7.3063  -24.5581   52.5840 H   0  0
   -5.3138  -23.0128   51.7544 H   0  0
   -6.7565  -23.3840   50.7400 H   0  0
   -3.9753  -24.2288   50.3805 H   0  0
   -5.3741  -24.4248   49.2692 H   0  0
   -5.2210  -26.5778   49.7981 H   0  0
   -6.5423  -30.3377   54.9785 H   0  0
   -6.1446  -28.6554   54.7432 H   0  0
   -4.5799  -31.1024   53.9004 H   0  0
   -4.0330  -29.6688   54.7959 H   0  0
   -3.1878  -28.3420   50.4683 H   0  0
   -1.6233  -26.4140   50.3490 H   0  0
    0.0895  -24.6943   49.8982 H   0  0
    1.5324  -24.4532   52.2187 H   0  0
    1.1208  -26.1491   53.1392 H   0  0
   -0.2934  -25.0215   54.5835 H   0  0
    0.1169  -23.3260   53.6620 H   0  0
   -1.4583  -26.2736   54.6615 H   0  0
   -3.0150  -28.2048   54.7870 H   0  0
   -4.3686  -30.6924   51.0446 H   0  0
   -5.0225  -29.0654   50.7912 H   0  0
   -6.9630  -30.3877   50.9802 H   0  0
   -6.2662  -31.4326   52.1963 H   0  0
  1  2  1  0
  2  3  1  0
  2  4  1  0
  4  5  2  0
  4  9  1  0
  5  6  1  0
  6  7  2  0
  7  8  1  0
  8  9  2  0
  9 10  1  0
 10 11  1  0
 10 19  1  0
 10 35  1  0
 11 12  2  0
 11 13  1  0
 13 14  1  0
 14 15  1  0
 14 18  1  0
 15 16  1  0
 16 17  1  0
 17 18  1  0
 19 20  1  0
 20 21  1  0
 21 22  1  0
 21 34  1  0
 22 23  2  0
 22 33  1  0
 23 24  1  0
 24 25  2  0
 25 26  1  0
 25 32  1  0
 26 27  1  0
 26 30  1  0
 26 31  1  0
 27 28  2  0
 27 29  1  0
 30 31  1  0
 32 33  2  0
 34 35  1  0
  1 36  1  0
  1 37  1  0
  1 38  1  0
  2 39  1  0
  3 40  1  0
  3 41  1  0
  3 42  1  0
  5 43  1  0
  6 44  1  0
  7 45  1  0
  8 46  1  0
 13 47  1  0
 14 48  1  0
 15 49  1  0
 16 50  1  0
 16 51  1  0
 17 52  1  0
 17 53  1  0
 18 54  1  0
 19 55  1  0
 19 56  1  0
 20 57  1  0
 20 58  1  0
 23 59  1  0
 24 60  1  0
 29 61  1  0
 30 62  1  0
 30 63  1  0
 31 64  1  0
 31 65  1  0
 32 66  1  0
 33 67  1  0
 34 68  1  0
 34 69  1  0
 35 70  1  0
 35 71  1  0
M  END
> <Name>
Molecule

> <AbsoluteEnergy>
67.4218

> <Clean Energy>
225.967

> <ConfNumber>
96

> <MOL_NUMBER>
5

> <RelativeEnergy>
19.1197

> <POSE_NUMBER>
77

> <LibDockScore>
110.4635

> <HotSpots>
-10.93,-30.92,53.98,A,68,6
-5.33,-24.12,49.78,A,36,17
0.87,-24.32,52.78,A,63,31

$$$$
Molecule
  SciTegic05072616053D

 71 75  0  0  0  0            999 V2000
    2.0922  -25.6130   52.7854 C   0  0  0  1  0  0
    0.7899  -24.8524   52.4788 C   0  0  0  1  0  0
    0.6039  -23.6513   53.4272 C   0  0  0  1  0  0
    0.7108  -24.4514   51.0236 C   0  0  0  1  0  0
    1.7486  -23.6251   50.5357 C   0  0  0  1  0  0
    1.7647  -23.1847   49.2081 C   0  0  0  1  0  0
    0.7407  -23.5686   48.3397 C   0  0  0  1  0  0
   -0.2928  -24.3952   48.7989 C   0  0  0  1  0  0
   -0.3382  -24.8622   50.1385 C   0  0  0  1  0  0
   -1.4855  -25.7812   50.5833 C   0  0  0  1  0  0
   -2.8355  -25.0498   50.5759 C   0  0  0  1  0  0
   -3.5344  -25.0619   51.5650 O   0  0  0  1  0  0
   -3.2704  -24.3835   49.4472 N   0  0  0  1  0  0
   -4.5576  -23.6370   49.4101 C   0  0  0  1  0  0
   -4.6803  -22.5891   50.4396 N   0  0  0  1  0  0
   -5.8348  -22.9231   51.2602 C   0  0  0  1  0  0
   -6.6637  -23.8562   50.4000 C   0  0  0  1  0  0
   -5.6838  -24.5577   49.5912 N   0  0  0  1  0  0
   -1.1557  -26.3771   52.0025 C   0  0  0  1  0  0
   -1.6390  -27.8250   52.2423 C   0  0  0  1  0  0
   -2.9305  -28.0869   51.5505 N   0  0  0  1  0  0
   -4.1055  -28.4328   52.2159 C   0  0  0  1  0  0
   -4.1206  -28.6631   53.6113 C   0  0  0  1  0  0
   -5.3117  -29.0072   54.2709 C   0  0  0  1  0  0
   -6.5126  -29.1220   53.5503 C   0  0  0  1  0  0
   -7.7949  -29.4826   54.2606 C   0  0  0  1  0  0
   -9.0197  -28.8436   53.6238 C   0  0  0  1  0  0
   -9.2241  -27.6638   53.7975 O   0  0  0  1  0  0
   -9.8441  -29.5883   52.8887 O   0  0  0  1  0  0
   -7.9454  -30.8711   54.8630 C   0  0  0  1  0  0
   -7.7849  -29.6755   55.7695 C   0  0  0  1  0  0
   -6.5131  -28.8934   52.1640 C   0  0  0  1  0  0
   -5.3215  -28.5535   51.5030 C   0  0  0  1  0  0
   -2.8843  -27.9191   50.0699 C   0  0  0  1  0  0
   -1.7083  -27.0121   49.6367 C   0  0  0  1  0  0
    2.0563  -25.9647   53.8165 H   0  0
    2.9316  -24.9267   52.6736 H   0  0
    2.2070  -26.4577   52.1061 H   0  0
   -0.0421  -25.5323   52.6621 H   0  0
    1.4545  -22.9797   53.3106 H   0  0
    0.5792  -24.0177   54.4535 H   0  0
   -0.3222  -23.1252   53.1957 H   0  0
    2.5527  -23.3250   51.2076 H   0  0
    2.5727  -22.5449   48.8531 H   0  0
    0.7456  -23.2253   47.3052 H   0  0
   -1.0839  -24.6878   48.1085 H   0  0
   -2.6605  -24.4046   48.5683 H   0  0
   -4.5729  -23.1539   48.4331 H   0  0
   -3.7986  -22.5721   51.0456 H   0  0
   -6.4055  -22.0235   51.4908 H   0  0
   -5.5149  -23.4372   52.1666 H   0  0
   -7.2070  -24.5617   51.0287 H   0  0
   -7.3356  -23.2816   49.7624 H   0  0
   -6.1076  -24.8054   48.6405 H   0  0
   -0.0766  -26.3428   52.1524 H   0  0
   -1.5987  -25.7339   52.7628 H   0  0
   -0.8867  -28.5208   51.8707 H   0  0
   -1.7669  -27.9893   53.3122 H   0  0
   -3.1963  -28.5724   54.1818 H   0  0
   -5.3046  -29.1859   55.3461 H   0  0
  -10.1372  -30.3711   53.5242 H   0  0
   -7.0212  -31.4436   54.7846 H   0  0
   -8.9799  -31.2124   54.8263 H   0  0
   -8.7337  -29.3795   56.2169 H   0  0
   -6.7748  -29.6097   56.1739 H   0  0
   -7.4415  -28.9802   51.5996 H   0  0
   -5.3337  -28.3805   50.4269 H   0  0
   -2.7727  -28.8974   49.6023 H   0  0
   -3.8208  -27.4773   49.7296 H   0  0
   -1.8963  -26.6508   48.6256 H   0  0
   -0.7959  -27.6079   49.6096 H   0  0
  1  2  1  0
  2  3  1  0
  2  4  1  0
  4  5  2  0
  4  9  1  0
  5  6  1  0
  6  7  2  0
  7  8  1  0
  8  9  2  0
  9 10  1  0
 10 11  1  0
 10 19  1  0
 10 35  1  0
 11 12  2  0
 11 13  1  0
 13 14  1  0
 14 15  1  0
 14 18  1  0
 15 16  1  0
 16 17  1  0
 17 18  1  0
 19 20  1  0
 20 21  1  0
 21 22  1  0
 21 34  1  0
 22 23  2  0
 22 33  1  0
 23 24  1  0
 24 25  2  0
 25 26  1  0
 25 32  1  0
 26 27  1  0
 26 30  1  0
 26 31  1  0
 27 28  2  0
 27 29  1  0
 30 31  1  0
 32 33  2  0
 34 35  1  0
  1 36  1  0
  1 37  1  0
  1 38  1  0
  2 39  1  0
  3 40  1  0
  3 41  1  0
  3 42  1  0
  5 43  1  0
  6 44  1  0
  7 45  1  0
  8 46  1  0
 13 47  1  0
 14 48  1  0
 15 49  1  0
 16 50  1  0
 16 51  1  0
 17 52  1  0
 17 53  1  0
 18 54  1  0
 19 55  1  0
 19 56  1  0
 20 57  1  0
 20 58  1  0
 23 59  1  0
 24 60  1  0
 29 61  1  0
 30 62  1  0
 30 63  1  0
 31 64  1  0
 31 65  1  0
 32 66  1  0
 33 67  1  0
 34 68  1  0
 34 69  1  0
 35 70  1  0
 35 71  1  0
M  END
> <Name>
Molecule

> <AbsoluteEnergy>
50.9766

> <Clean Energy>
225.967

> <ConfNumber>
9

> <MOL_NUMBER>
5

> <RelativeEnergy>
2.67445

> <POSE_NUMBER>
78

> <LibDockScore>
109.3231

> <HotSpots>
0.87,-24.32,52.78,A,63,1
2.67,-23.92,48.98,A,32,6
-5.13,-23.32,51.38,A,54,16

$$$$
Molecule
  SciTegic05072616053D

 71 75  0  0  0  0            999 V2000
   -1.1718  -25.9618   53.1290 C   0  0  0  1  0  0
   -0.0902  -24.8672   52.9779 C   0  0  0  1  0  0
   -0.3255  -23.5433   53.7387 C   0  0  0  1  0  0
    0.5521  -24.6841   51.6069 C   0  0  0  1  0  0
    1.9699  -24.6780   51.6489 C   0  0  0  1  0  0
    2.7518  -24.5640   50.4992 C   0  0  0  1  0  0
    2.1323  -24.4576   49.2584 C   0  0  0  1  0  0
    0.7372  -24.4470   49.1780 C   0  0  0  1  0  0
   -0.1037  -24.5232   50.3253 C   0  0  0  1  0  0
   -1.6235  -24.4421   50.0598 C   0  0  0  1  0  0
   -1.9749  -23.2612   49.1187 C   0  0  0  1  0  0
   -1.7180  -22.1286   49.4665 O   0  0  0  1  0  0
   -2.5853  -23.4417   47.8918 N   0  0  0  1  0  0
   -3.4222  -22.3776   47.2909 C   0  0  0  1  0  0
   -3.6139  -22.5981   45.8614 N   0  0  0  1  0  0
   -4.8781  -21.9603   45.5474 C   0  0  0  1  0  0
   -5.7093  -22.1068   46.8112 C   0  0  0  1  0  0
   -4.7615  -22.3969   47.8797 N   0  0  0  1  0  0
   -2.4861  -24.1052   51.3216 C   0  0  0  1  0  0
   -4.0044  -24.2124   51.0768 C   0  0  0  1  0  0
   -4.3182  -25.5822   50.5904 N   0  0  0  1  0  0
   -5.1353  -26.4619   51.2953 C   0  0  0  1  0  0
   -6.2708  -25.9950   51.9957 C   0  0  0  1  0  0
   -7.0688  -26.8796   52.7405 C   0  0  0  1  0  0
   -6.7524  -28.2480   52.7922 C   0  0  0  1  0  0
   -7.5937  -29.1927   53.6171 C   0  0  0  1  0  0
   -7.1991  -29.1949   55.0848 C   0  0  0  1  0  0
   -7.9644  -28.7318   55.8995 O   0  0  0  1  0  0
   -6.0199  -29.7066   55.4363 O   0  0  0  1  0  0
   -8.0693  -30.4978   53.0003 C   0  0  0  1  0  0
   -9.0611  -29.3930   53.2694 C   0  0  0  1  0  0
   -5.6423  -28.7291   52.0765 C   0  0  0  1  0  0
   -4.8412  -27.8445   51.3363 C   0  0  0  1  0  0
   -3.6388  -25.9411   49.3180 C   0  0  0  1  0  0
   -2.1076  -25.8082   49.4638 C   0  0  0  1  0  0
   -2.1085  -25.5101   52.8026 H   0  0
   -1.2558  -26.1601   54.1975 H   0  0
   -0.9404  -26.8661   52.5661 H   0  0
    0.6996  -25.3607   53.5443 H   0  0
   -0.4342  -23.8122   54.7894 H   0  0
   -1.2869  -23.1622   53.3945 H   0  0
    0.4751  -22.8195   53.5866 H   0  0
    2.4668  -24.7656   52.6151 H   0  0
    3.8393  -24.5584   50.5727 H   0  0
    2.7329  -24.3827   48.3519 H   0  0
    0.2722  -24.3774   48.1946 H   0  0
   -2.4511  -24.3649   47.3678 H   0  0
   -2.9075  -21.4344   47.4743 H   0  0
   -2.8227  -22.1352   45.3094 H   0  0
   -5.3647  -22.4761   44.7196 H   0  0
   -4.7212  -20.9049   45.3247 H   0  0
   -6.4108  -22.9339   46.7016 H   0  0
   -6.2330  -21.1742   47.0213 H   0  0
   -4.8344  -21.6479   48.6404 H   0  0
   -2.2534  -23.0920   51.6494 H   0  0
   -2.2111  -24.7839   52.1289 H   0  0
   -4.3064  -23.4815   50.3266 H   0  0
   -4.5382  -24.0255   52.0086 H   0  0
   -6.5302  -24.9370   51.9576 H   0  0
   -7.9373  -26.5029   53.2807 H   0  0
   -5.3115  -29.1717   54.8755 H   0  0
   -8.1385  -31.2907   53.7450 H   0  0
   -7.8108  -30.5578   51.9431 H   0  0
   -9.3315  -28.8637   52.3557 H   0  0
   -9.6581  -29.5958   54.1585 H   0  0
   -5.4025  -29.7922   52.0961 H   0  0
   -3.9819  -28.2284   50.7865 H   0  0
   -3.8876  -26.9690   49.0540 H   0  0
   -3.9837  -25.2781   48.5246 H   0  0
   -1.6509  -25.9440   48.4835 H   0  0
   -1.7467  -26.6164   50.0999 H   0  0
  1  2  1  0
  2  3  1  0
  2  4  1  0
  4  5  2  0
  4  9  1  0
  5  6  1  0
  6  7  2  0
  7  8  1  0
  8  9  2  0
  9 10  1  0
 10 11  1  0
 10 19  1  0
 10 35  1  0
 11 12  2  0
 11 13  1  0
 13 14  1  0
 14 15  1  0
 14 18  1  0
 15 16  1  0
 16 17  1  0
 17 18  1  0
 19 20  1  0
 20 21  1  0
 21 22  1  0
 21 34  1  0
 22 23  2  0
 22 33  1  0
 23 24  1  0
 24 25  2  0
 25 26  1  0
 25 32  1  0
 26 27  1  0
 26 30  1  0
 26 31  1  0
 27 28  2  0
 27 29  1  0
 30 31  1  0
 32 33  2  0
 34 35  1  0
  1 36  1  0
  1 37  1  0
  1 38  1  0
  2 39  1  0
  3 40  1  0
  3 41  1  0
  3 42  1  0
  5 43  1  0
  6 44  1  0
  7 45  1  0
  8 46  1  0
 13 47  1  0
 14 48  1  0
 15 49  1  0
 16 50  1  0
 16 51  1  0
 17 52  1  0
 17 53  1  0
 18 54  1  0
 19 55  1  0
 19 56  1  0
 20 57  1  0
 20 58  1  0
 23 59  1  0
 24 60  1  0
 29 61  1  0
 30 62  1  0
 30 63  1  0
 31 64  1  0
 31 65  1  0
 32 66  1  0
 33 67  1  0
 34 68  1  0
 34 69  1  0
 35 70  1  0
 35 71  1  0
M  END
> <Name>
Molecule

> <AbsoluteEnergy>
66.1513

> <Clean Energy>
225.967

> <ConfNumber>
93

> <MOL_NUMBER>
5

> <RelativeEnergy>
17.8491

> <POSE_NUMBER>
79

> <LibDockScore>
109.0132

> <HotSpots>
1.67,-24.32,50.98,A,50,5
-5.93,-22.12,45.59,A,14,17
-6.33,-26.32,51.98,A,57,23

$$$$
Molecule
  SciTegic05072616053D

 71 75  0  0  0  0            999 V2000
   -3.2482  -25.6611   45.7944 C   0  0  0  1  0  0
   -2.5088  -25.3372   47.1075 C   0  0  0  1  0  0
   -1.2802  -26.2461   47.3070 C   0  0  0  1  0  0
   -2.1450  -23.8744   47.2171 C   0  0  0  1  0  0
   -1.1958  -23.4031   46.2854 C   0  0  0  1  0  0
   -0.7851  -22.0680   46.2783 C   0  0  0  1  0  0
   -1.3216  -21.1743   47.2088 C   0  0  0  1  0  0
   -2.2584  -21.6199   48.1487 C   0  0  0  1  0  0
   -2.6899  -22.9689   48.1889 C   0  0  0  1  0  0
   -3.6995  -23.4001   49.2575 C   0  0  0  1  0  0
   -3.0728  -24.5151   50.1158 C   0  0  0  1  0  0
   -3.5591  -25.6239   50.1353 O   0  0  0  1  0  0
   -1.9434  -24.2657   50.8754 N   0  0  0  1  0  0
   -1.1997  -25.3645   51.5485 C   0  0  0  1  0  0
   -2.0107  -26.0060   52.6005 N   0  0  0  1  0  0
   -1.1627  -26.1021   53.7853 C   0  0  0  1  0  0
    0.2368  -25.7571   53.3155 C   0  0  0  1  0  0
    0.0266  -24.8678   52.1905 N   0  0  0  1  0  0
   -5.0458  -23.8339   48.5526 C   0  0  0  1  0  0
   -6.3248  -23.6644   49.4107 C   0  0  0  1  0  0
   -5.9542  -23.8278   50.8370 N   0  0  0  1  0  0
   -6.1865  -25.0080   51.5397 C   0  0  0  1  0  0
   -7.3260  -25.8107   51.2832 C   0  0  0  1  0  0
   -7.4018  -27.1203   51.7854 C   0  0  0  1  0  0
   -6.3473  -27.6270   52.5633 C   0  0  0  1  0  0
   -6.2838  -29.0859   52.9143 C   0  0  0  1  0  0
   -5.3528  -29.8037   51.9467 C   0  0  0  1  0  0
   -4.1880  -29.4751   51.9172 O   0  0  0  1  0  0
   -5.8342  -30.7474   51.1392 O   0  0  0  1  0  0
   -6.2948  -29.5133   54.3710 C   0  0  0  1  0  0
   -7.4905  -29.8025   53.4904 C   0  0  0  1  0  0
   -5.3141  -26.7753   52.9832 C   0  0  0  1  0  0
   -5.2467  -25.4691   52.4896 C   0  0  0  1  0  0
   -5.1443  -22.6790   51.3362 C   0  0  0  1  0  0
   -4.1189  -22.2506   50.2522 C   0  0  0  1  0  0
   -3.5662  -26.7033   45.8234 H   0  0
   -2.5554  -25.5257   44.9638 H   0  0
   -4.1125  -25.0083   45.6725 H   0  0
   -3.2057  -25.5470   47.9189 H   0  0
   -0.6043  -26.1057   46.4634 H   0  0
   -1.6151  -27.2833   47.3230 H   0  0
   -0.7722  -26.0012   48.2398 H   0  0
   -0.7744  -24.0951   45.5562 H   0  0
   -0.0497  -21.7251   45.5505 H   0  0
   -1.0105  -20.1296   47.2028 H   0  0
   -2.6666  -20.9105   48.8685 H   0  0
   -1.5968  -23.2589   50.9812 H   0  0
   -0.9576  -26.0840   50.7663 H   0  0
   -2.8683  -25.4035   52.8160 H   0  0
   -1.1821  -27.1188   54.1778 H   0  0
   -1.4893  -25.3838   54.5373 H   0  0
    0.7806  -25.2407   54.1065 H   0  0
    0.7563  -26.6584   52.9901 H   0  0
    0.8502  -24.9339   51.5106 H   0  0
   -5.1628  -23.2540   47.6371 H   0  0
   -4.9638  -24.8793   48.2552 H   0  0
   -6.7424  -22.6700   49.2528 H   0  0
   -7.0559  -24.4238   49.1336 H   0  0
   -8.1491  -25.4091   50.6922 H   0  0
   -8.2733  -27.7396   51.5729 H   0  0
   -6.6079  -30.2750   50.6093 H   0  0
   -6.4804  -28.6691   55.0351 H   0  0
   -5.6891  -30.4052   54.5310 H   0  0
   -7.5199  -30.8483   53.1845 H   0  0
   -8.3103  -29.1117   53.6872 H   0  0
   -4.5664  -27.1311   53.6920 H   0  0
   -4.4616  -24.7995   52.8407 H   0  0
   -5.8039  -21.8411   51.5622 H   0  0
   -4.6127  -22.9745   52.2407 H   0  0
   -3.2248  -21.8720   50.7475 H   0  0
   -4.5417  -21.4260   49.6784 H   0  0
  1  2  1  0
  2  3  1  0
  2  4  1  0
  4  5  2  0
  4  9  1  0
  5  6  1  0
  6  7  2  0
  7  8  1  0
  8  9  2  0
  9 10  1  0
 10 11  1  0
 10 19  1  0
 10 35  1  0
 11 12  2  0
 11 13  1  0
 13 14  1  0
 14 15  1  0
 14 18  1  0
 15 16  1  0
 16 17  1  0
 17 18  1  0
 19 20  1  0
 20 21  1  0
 21 22  1  0
 21 34  1  0
 22 23  2  0
 22 33  1  0
 23 24  1  0
 24 25  2  0
 25 26  1  0
 25 32  1  0
 26 27  1  0
 26 30  1  0
 26 31  1  0
 27 28  2  0
 27 29  1  0
 30 31  1  0
 32 33  2  0
 34 35  1  0
  1 36  1  0
  1 37  1  0
  1 38  1  0
  2 39  1  0
  3 40  1  0
  3 41  1  0
  3 42  1  0
  5 43  1  0
  6 44  1  0
  7 45  1  0
  8 46  1  0
 13 47  1  0
 14 48  1  0
 15 49  1  0
 16 50  1  0
 16 51  1  0
 17 52  1  0
 17 53  1  0
 18 54  1  0
 19 55  1  0
 19 56  1  0
 20 57  1  0
 20 58  1  0
 23 59  1  0
 24 60  1  0
 29 61  1  0
 30 62  1  0
 30 63  1  0
 31 64  1  0
 31 65  1  0
 32 66  1  0
 33 67  1  0
 34 68  1  0
 34 69  1  0
 35 70  1  0
 35 71  1  0
M  END
> <Name>
Molecule

> <AbsoluteEnergy>
60.8537

> <Clean Energy>
225.967

> <ConfNumber>
68

> <MOL_NUMBER>
5

> <RelativeEnergy>
12.5515

> <POSE_NUMBER>
80

> <LibDockScore>
108.983

> <HotSpots>
-2.53,-21.12,45.98,A,16,6
-0.33,-25.52,53.19,A,64,16
-6.33,-26.32,51.98,A,57,23

$$$$
Molecule
  SciTegic05072616053D

 71 75  0  0  0  0            999 V2000
   -1.9513  -24.0177   48.2690 C   0  0  0  1  0  0
   -0.8078  -24.9456   48.7037 C   0  0  0  1  0  0
   -1.0064  -26.4134   48.2745 C   0  0  0  1  0  0
   -0.2320  -24.7635   50.1069 C   0  0  0  1  0  0
    1.0768  -24.2178   50.1185 C   0  0  0  1  0  0
    1.7626  -23.9502   51.3049 C   0  0  0  1  0  0
    1.1533  -24.2247   52.5258 C   0  0  0  1  0  0
   -0.1314  -24.7761   52.5538 C   0  0  0  1  0  0
   -0.8601  -25.0807   51.3697 C   0  0  0  1  0  0
   -2.2573  -25.7200   51.5243 C   0  0  0  1  0  0
   -3.3268  -24.7589   50.9783 C   0  0  0  1  0  0
   -3.0881  -23.5724   50.9203 O   0  0  0  1  0  0
   -4.5600  -25.2111   50.5456 N   0  0  0  1  0  0
   -5.6049  -24.3058   50.0077 C   0  0  0  1  0  0
   -6.0354  -23.3334   51.0132 N   0  0  0  1  0  0
   -6.3006  -22.1071   50.2855 C   0  0  0  1  0  0
   -5.3142  -22.1433   49.1348 C   0  0  0  1  0  0
   -5.1163  -23.5571   48.8427 N   0  0  0  1  0  0
   -2.6834  -25.9121   53.0272 C   0  0  0  1  0  0
   -4.0026  -26.6821   53.2595 C   0  0  0  1  0  0
   -4.1051  -27.8916   52.3981 N   0  0  0  1  0  0
   -5.3167  -28.5605   52.2139 C   0  0  0  1  0  0
   -5.3699  -29.8532   51.6404 C   0  0  0  1  0  0
   -6.5966  -30.5151   51.4676 C   0  0  0  1  0  0
   -7.7967  -29.8960   51.8555 C   0  0  0  1  0  0
   -9.1154  -30.6067   51.6661 C   0  0  0  1  0  0
   -9.8773  -30.1182   50.4453 C   0  0  0  1  0  0
  -10.7443  -29.2863   50.5859 O   0  0  0  1  0  0
   -9.5700  -30.6199   49.2504 O   0  0  0  1  0  0
   -9.9128  -31.0377   52.8878 C   0  0  0  1  0  0
   -9.2272  -32.0779   52.0364 C   0  0  0  1  0  0
   -7.7611  -28.6087   52.4175 C   0  0  0  1  0  0
   -6.5343  -27.9487   52.5952 C   0  0  0  1  0  0
   -2.8307  -28.2983   51.7491 C   0  0  0  1  0  0
   -2.2445  -27.1588   50.8880 C   0  0  0  1  0  0
   -2.8738  -24.4048   48.7018 H   0  0
   -2.0290  -24.0750   47.1833 H   0  0
   -1.7741  -22.9914   48.5904 H   0  0
    0.0213  -24.5645   48.1075 H   0  0
   -1.0999  -26.4307   47.1887 H   0  0
   -1.9447  -26.7604   48.7072 H   0  0
   -0.1753  -27.0384   48.6012 H   0  0
    1.5643  -23.9997   49.1683 H   0  0
    2.7677  -23.5294   51.2752 H   0  0
    1.6763  -24.0104   53.4578 H   0  0
   -0.5927  -24.9806   53.5200 H   0  0
   -4.7695  -26.2589   50.6012 H   0  0
   -6.4420  -24.9413   49.7189 H   0  0
   -6.9294  -23.6744   51.4922 H   0  0
   -6.1050  -21.2417   50.9187 H   0  0
   -7.3215  -22.1084   49.9035 H   0  0
   -5.7365  -21.6381   48.2662 H   0  0
   -4.3707  -21.6891   49.4373 H   0  0
   -4.0751  -23.7544   48.6951 H   0  0
   -2.7706  -24.9302   53.4924 H   0  0
   -1.8824  -26.4337   53.5511 H   0  0
   -4.0602  -26.9845   54.3051 H   0  0
   -4.8442  -26.0227   53.0475 H   0  0
   -4.4467  -30.3416   51.3287 H   0  0
   -6.6176  -31.5135   51.0306 H   0  0
   -9.6838  -31.6588   49.3518 H   0  0
  -10.9855  -31.0051   52.6973 H   0  0
   -9.3643  -30.8473   53.8103 H   0  0
   -8.3134  -32.4430   52.5052 H   0  0
   -9.9340  -32.5996   51.3912 H   0  0
   -8.6888  -28.1207   52.7165 H   0  0
   -6.5198  -26.9507   53.0332 H   0  0
   -3.0115  -29.1676   51.1169 H   0  0
   -2.1091  -28.5730   52.5184 H   0  0
   -1.2162  -27.4155   50.6337 H   0  0
   -2.7917  -27.1244   49.9460 H   0  0
  1  2  1  0
  2  3  1  0
  2  4  1  0
  4  5  2  0
  4  9  1  0
  5  6  1  0
  6  7  2  0
  7  8  1  0
  8  9  2  0
  9 10  1  0
 10 11  1  0
 10 19  1  0
 10 35  1  0
 11 12  2  0
 11 13  1  0
 13 14  1  0
 14 15  1  0
 14 18  1  0
 15 16  1  0
 16 17  1  0
 17 18  1  0
 19 20  1  0
 20 21  1  0
 21 22  1  0
 21 34  1  0
 22 23  2  0
 22 33  1  0
 23 24  1  0
 24 25  2  0
 25 26  1  0
 25 32  1  0
 26 27  1  0
 26 30  1  0
 26 31  1  0
 27 28  2  0
 27 29  1  0
 30 31  1  0
 32 33  2  0
 34 35  1  0
  1 36  1  0
  1 37  1  0
  1 38  1  0
  2 39  1  0
  3 40  1  0
  3 41  1  0
  3 42  1  0
  5 43  1  0
  6 44  1  0
  7 45  1  0
  8 46  1  0
 13 47  1  0
 14 48  1  0
 15 49  1  0
 16 50  1  0
 16 51  1  0
 17 52  1  0
 17 53  1  0
 18 54  1  0
 19 55  1  0
 19 56  1  0
 20 57  1  0
 20 58  1  0
 23 59  1  0
 24 60  1  0
 29 61  1  0
 30 62  1  0
 30 63  1  0
 31 64  1  0
 31 65  1  0
 32 66  1  0
 33 67  1  0
 34 68  1  0
 34 69  1  0
 35 70  1  0
 35 71  1  0
M  END
> <Name>
Molecule

> <AbsoluteEnergy>
62.7534

> <Clean Energy>
225.967

> <ConfNumber>
78

> <MOL_NUMBER>
5

> <RelativeEnergy>
14.4512

> <POSE_NUMBER>
81

> <LibDockScore>
108.5037

> <HotSpots>
1.67,-24.32,50.98,A,50,6
-5.53,-22.92,48.98,A,33,17
-6.53,-30.72,51.78,A,56,24

$$$$
Molecule
  SciTegic05072616053D

 71 75  0  0  0  0            999 V2000
   -4.3242  -29.9351   54.7112 C   0  0  0  1  0  0
   -4.2684  -29.3331   53.2898 C   0  0  0  1  0  0
   -3.6176  -30.3268   52.3060 C   0  0  0  1  0  0
   -3.5986  -27.9748   53.2560 C   0  0  0  1  0  0
   -2.3107  -27.9373   53.8386 C   0  0  0  1  0  0
   -1.5790  -26.7504   53.9316 C   0  0  0  1  0  0
   -2.1289  -25.5635   53.4495 C   0  0  0  1  0  0
   -3.3975  -25.5725   52.8572 C   0  0  0  1  0  0
   -4.1615  -26.7669   52.7029 C   0  0  0  1  0  0
   -5.5234  -26.6483   51.9755 C   0  0  0  1  0  0
   -5.4943  -25.5678   50.8648 C   0  0  0  1  0  0
   -6.3896  -24.7569   50.7658 O   0  0  0  1  0  0
   -4.4471  -25.5110   49.9586 N   0  0  0  1  0  0
   -4.2206  -24.3437   49.0644 C   0  0  0  1  0  0
   -5.3155  -24.1676   48.0939 N   0  0  0  1  0  0
   -5.3491  -22.7380   47.8468 C   0  0  0  1  0  0
   -4.9587  -22.1213   49.1770 C   0  0  0  1  0  0
   -4.0501  -23.0776   49.7939 N   0  0  0  1  0  0
   -6.6166  -26.2138   53.0141 C   0  0  0  1  0  0
   -7.3165  -27.3446   53.7843 C   0  0  0  1  0  0
   -7.8964  -28.3801   52.8754 N   0  0  0  1  0  0
   -8.8074  -29.3285   53.3488 C   0  0  0  1  0  0
   -9.0809  -29.4484   54.7322 C   0  0  0  1  0  0
  -10.0313  -30.3711   55.2030 C   0  0  0  1  0  0
  -10.7285  -31.1949   54.3003 C   0  0  0  1  0  0
  -11.7903  -32.1518   54.7951 C   0  0  0  1  0  0
  -11.2875  -33.5691   55.0281 C   0  0  0  1  0  0
  -11.3255  -34.3697   54.1218 O   0  0  0  1  0  0
  -10.8260  -33.9037   56.2333 O   0  0  0  1  0  0
  -13.2166  -31.9823   54.2906 C   0  0  0  1  0  0
  -12.8805  -31.6258   55.7177 C   0  0  0  1  0  0
  -10.4352  -31.1152   52.9287 C   0  0  0  1  0  0
   -9.4908  -30.1888   52.4575 C   0  0  0  1  0  0
   -7.4816  -28.3302   51.4393 C   0  0  0  1  0  0
   -5.9996  -27.9515   51.2279 C   0  0  0  1  0  0
   -3.3105  -30.1625   55.0411 H   0  0
   -4.9073  -30.8556   54.6849 H   0  0
   -4.7854  -29.2258   55.3984 H   0  0
   -5.2955  -29.1627   52.9672 H   0  0
   -4.2035  -31.2458   52.2891 H   0  0
   -2.6067  -30.5527   52.6454 H   0  0
   -3.5829  -29.8931   51.3066 H   0  0
   -1.8769  -28.8593   54.2257 H   0  0
   -0.5847  -26.7526   54.3782 H   0  0
   -1.5722  -24.6302   53.5335 H   0  0
   -3.8168  -24.6317   52.5007 H   0  0
   -3.7740  -26.3407   49.8997 H   0  0
   -3.2925  -24.5766   48.5424 H   0  0
   -5.0932  -24.6928   47.1886 H   0  0
   -6.3565  -22.4258   47.5716 H   0  0
   -4.6196  -22.4705   47.0823 H   0  0
   -4.4469  -21.1732   49.0119 H   0  0
   -5.8425  -21.9902   49.8013 H   0  0
   -4.3089  -23.2130   50.8233 H   0  0
   -6.1575  -25.5393   53.7369 H   0  0
   -7.3770  -25.6318   52.4934 H   0  0
   -6.5968  -27.8203   54.4505 H   0  0
   -8.1147  -26.9208   54.3938 H   0  0
   -8.5473  -28.8167   55.4424 H   0  0
  -10.2290  -30.4487   56.2721 H   0  0
  -11.6119  -33.6886   56.8955 H   0  0
  -13.7342  -32.9394   54.2260 H   0  0
  -13.3164  -31.0942   53.6665 H   0  0
  -12.8020  -30.5474   55.8554 H   0  0
  -13.2183  -32.3929   56.4146 H   0  0
  -10.9434  -31.7760   52.2264 H   0  0
   -9.2812  -30.1317   51.3894 H   0  0
   -7.6632  -29.3054   50.9875 H   0  0
   -8.1072  -27.6062   50.9173 H   0  0
   -5.8232  -27.8247   50.1598 H   0  0
   -5.3790  -28.7869   51.5521 H   0  0
  1  2  1  0
  2  3  1  0
  2  4  1  0
  4  5  2  0
  4  9  1  0
  5  6  1  0
  6  7  2  0
  7  8  1  0
  8  9  2  0
  9 10  1  0
 10 11  1  0
 10 19  1  0
 10 35  1  0
 11 12  2  0
 11 13  1  0
 13 14  1  0
 14 15  1  0
 14 18  1  0
 15 16  1  0
 16 17  1  0
 17 18  1  0
 19 20  1  0
 20 21  1  0
 21 22  1  0
 21 34  1  0
 22 23  2  0
 22 33  1  0
 23 24  1  0
 24 25  2  0
 25 26  1  0
 25 32  1  0
 26 27  1  0
 26 30  1  0
 26 31  1  0
 27 28  2  0
 27 29  1  0
 30 31  1  0
 32 33  2  0
 34 35  1  0
  1 36  1  0
  1 37  1  0
  1 38  1  0
  2 39  1  0
  3 40  1  0
  3 41  1  0
  3 42  1  0
  5 43  1  0
  6 44  1  0
  7 45  1  0
  8 46  1  0
 13 47  1  0
 14 48  1  0
 15 49  1  0
 16 50  1  0
 16 51  1  0
 17 52  1  0
 17 53  1  0
 18 54  1  0
 19 55  1  0
 19 56  1  0
 20 57  1  0
 20 58  1  0
 23 59  1  0
 24 60  1  0
 29 61  1  0
 30 62  1  0
 30 63  1  0
 31 64  1  0
 31 65  1  0
 32 66  1  0
 33 67  1  0
 34 68  1  0
 34 69  1  0
 35 70  1  0
 35 71  1  0
M  END
> <Name>
Molecule

> <AbsoluteEnergy>
61.4098

> <Clean Energy>
225.967

> <ConfNumber>
73

> <MOL_NUMBER>
5

> <RelativeEnergy>
13.1076

> <POSE_NUMBER>
82

> <LibDockScore>
108.2951

> <HotSpots>
-0.93,-28.12,54.98,A,74,6
-12.93,-31.72,54.98,A,73,30
-9.53,-30.12,52.78,A,62,33

$$$$
Molecule
  SciTegic05072616053D

 71 75  0  0  0  0            999 V2000
   -2.4823  -22.8377   46.8127 C   0  0  0  1  0  0
   -3.1363  -24.0434   47.5169 C   0  0  0  1  0  0
   -3.7241  -25.0379   46.4988 C   0  0  0  1  0  0
   -4.1654  -23.6176   48.5416 C   0  0  0  1  0  0
   -5.3171  -22.9645   48.0472 C   0  0  0  1  0  0
   -6.3262  -22.5186   48.9068 C   0  0  0  1  0  0
   -6.2014  -22.7221   50.2826 C   0  0  0  1  0  0
   -5.0713  -23.3732   50.7951 C   0  0  0  1  0  0
   -4.0288  -23.8409   49.9525 C   0  0  0  1  0  0
   -2.8072  -24.5614   50.5541 C   0  0  0  1  0  0
   -1.5203  -23.7951   50.1949 C   0  0  0  1  0  0
   -1.5853  -22.7085   49.6624 O   0  0  0  1  0  0
   -0.2756  -24.3290   50.4576 N   0  0  0  1  0  0
    0.9668  -23.5455   50.2080 C   0  0  0  1  0  0
    2.1250  -24.2443   50.7781 N   0  0  0  1  0  0
    3.1785  -24.2177   49.7771 C   0  0  0  1  0  0
    2.4343  -24.1376   48.4607 C   0  0  0  1  0  0
    1.2452  -23.3629   48.7725 N   0  0  0  1  0  0
   -2.8003  -24.5975   52.1202 C   0  0  0  1  0  0
   -3.6832  -25.7055   52.7336 C   0  0  0  1  0  0
   -3.1924  -27.0598   52.3462 N   0  0  0  1  0  0
   -3.4548  -28.1916   53.1264 C   0  0  0  1  0  0
   -4.7272  -28.3913   53.7142 C   0  0  0  1  0  0
   -4.9894  -29.5231   54.5058 C   0  0  0  1  0  0
   -3.9862  -30.4827   54.7260 C   0  0  0  1  0  0
   -4.2655  -31.6989   55.5789 C   0  0  0  1  0  0
   -5.2149  -32.6831   54.9154 C   0  0  0  1  0  0
   -6.3006  -32.8798   55.4113 O   0  0  0  1  0  0
   -4.8258  -33.3051   53.8037 O   0  0  0  1  0  0
   -4.3258  -31.5547   57.0924 C   0  0  0  1  0  0
   -3.1559  -32.2622   56.4543 C   0  0  0  1  0  0
   -2.7199  -30.3023   54.1437 C   0  0  0  1  0  0
   -2.4564  -29.1688   53.3552 C   0  0  0  1  0  0
   -2.3920  -27.1267   51.0855 C   0  0  0  1  0  0
   -2.8208  -26.0549   50.0548 C   0  0  0  1  0  0
   -3.2371  -22.3361   46.2070 H   0  0
   -1.6893  -23.2030   46.1602 H   0  0
   -2.0723  -22.1454   47.5480 H   0  0
   -2.3469  -24.5603   48.0627 H   0  0
   -2.9216  -25.3865   45.8487 H   0  0
   -4.4694  -24.5196   45.8955 H   0  0
   -4.1816  -25.8825   47.0140 H   0  0
   -5.4210  -22.8050   46.9739 H   0  0
   -7.2054  -22.0149   48.5049 H   0  0
   -6.9831  -22.3745   50.9580 H   0  0
   -4.9904  -23.5249   51.8715 H   0  0
   -0.2012  -25.3227   50.8473 H   0  0
    0.8071  -22.5721   50.6717 H   0  0
    2.4534  -23.7393   51.6624 H   0  0
    3.7641  -25.1360   49.8203 H   0  0
    3.8016  -23.3331   49.9090 H   0  0
    3.0395  -23.6160   47.7193 H   0  0
    2.1551  -25.1365   48.1256 H   0  0
    0.4186  -23.7212   48.1952 H   0  0
   -3.1392  -23.6322   52.4962 H   0  0
   -1.7753  -24.7366   52.4638 H   0  0
   -4.7089  -25.5832   52.3856 H   0  0
   -3.6691  -25.6164   53.8199 H   0  0
   -5.5154  -27.6564   53.5505 H   0  0
   -5.9753  -29.6571   54.9509 H   0  0
   -3.9296  -33.7887   54.0597 H   0  0
   -5.0305  -32.2596   57.5336 H   0  0
   -4.0623  -30.5453   57.4082 H   0  0
   -2.2679  -31.6305   56.4304 H   0  0
   -3.2367  -33.3446   56.5543 H   0  0
   -1.9383  -31.0449   54.3043 H   0  0
   -1.4683  -29.0403   52.9132 H   0  0
   -2.5101  -28.1148   50.6406 H   0  0
   -1.3381  -26.9870   51.3261 H   0  0
   -2.1695  -26.1353   49.1845 H   0  0
   -3.8261  -26.2942   49.7080 H   0  0
  1  2  1  0
  2  3  1  0
  2  4  1  0
  4  5  2  0
  4  9  1  0
  5  6  1  0
  6  7  2  0
  7  8  1  0
  8  9  2  0
  9 10  1  0
 10 11  1  0
 10 19  1  0
 10 35  1  0
 11 12  2  0
 11 13  1  0
 13 14  1  0
 14 15  1  0
 14 18  1  0
 15 16  1  0
 16 17  1  0
 17 18  1  0
 19 20  1  0
 20 21  1  0
 21 22  1  0
 21 34  1  0
 22 23  2  0
 22 33  1  0
 23 24  1  0
 24 25  2  0
 25 26  1  0
 25 32  1  0
 26 27  1  0
 26 30  1  0
 26 31  1  0
 27 28  2  0
 27 29  1  0
 30 31  1  0
 32 33  2  0
 34 35  1  0
  1 36  1  0
  1 37  1  0
  1 38  1  0
  2 39  1  0
  3 40  1  0
  3 41  1  0
  3 42  1  0
  5 43  1  0
  6 44  1  0
  7 45  1  0
  8 46  1  0
 13 47  1  0
 14 48  1  0
 15 49  1  0
 16 50  1  0
 16 51  1  0
 17 52  1  0
 17 53  1  0
 18 54  1  0
 19 55  1  0
 19 56  1  0
 20 57  1  0
 20 58  1  0
 23 59  1  0
 24 60  1  0
 29 61  1  0
 30 62  1  0
 30 63  1  0
 31 64  1  0
 31 65  1  0
 32 66  1  0
 33 67  1  0
 34 68  1  0
 34 69  1  0
 35 70  1  0
 35 71  1  0
M  END
> <Name>
Molecule

> <AbsoluteEnergy>
52.4003

> <Clean Energy>
225.967

> <ConfNumber>
21

> <MOL_NUMBER>
5

> <RelativeEnergy>
4.09816

> <POSE_NUMBER>
83

> <LibDockScore>
107.3051

> <HotSpots>
-5.33,-24.12,49.78,A,36,8
3.07,-24.52,50.38,A,43,16
-4.93,-33.72,54.59,P,51,29

$$$$
Molecule
  SciTegic05072616053D

 71 75  0  0  0  0            999 V2000
   -6.1787  -31.1337   50.6771 C   0  0  0  1  0  0
   -6.2232  -31.0257   52.2140 C   0  0  0  1  0  0
   -4.8399  -31.0997   52.8760 C   0  0  0  1  0  0
   -7.2229  -30.0024   52.7497 C   0  0  0  1  0  0
   -8.4961  -30.5538   53.0428 C   0  0  0  1  0  0
   -9.5386  -29.7862   53.5649 C   0  0  0  1  0  0
   -9.3364  -28.4309   53.8096 C   0  0  0  1  0  0
   -8.0978  -27.8493   53.5214 C   0  0  0  1  0  0
   -7.0120  -28.5899   52.9749 C   0  0  0  1  0  0
   -5.7021  -27.8320   52.6685 C   0  0  0  1  0  0
   -4.6519  -28.1595   53.7433 C   0  0  0  1  0  0
   -5.0009  -28.6755   54.7828 O   0  0  0  1  0  0
   -3.3113  -27.8856   53.5607 N   0  0  0  1  0  0
   -2.4004  -27.6798   54.7109 C   0  0  0  1  0  0
   -2.2455  -28.9194   55.4754 N   0  0  0  1  0  0
   -0.8275  -29.0698   55.7805 C   0  0  0  1  0  0
   -0.1615  -27.8018   55.2765 C   0  0  0  1  0  0
   -1.0628  -27.3094   54.2536 N   0  0  0  1  0  0
   -5.2739  -28.1138   51.1808 C   0  0  0  1  0  0
   -4.8623  -26.8860   50.3379 C   0  0  0  1  0  0
   -3.9955  -25.9613   51.1150 N   0  0  0  1  0  0
   -2.6959  -25.6156   50.7406 C   0  0  0  1  0  0
   -1.9535  -24.6901   51.5113 C   0  0  0  1  0  0
   -0.6417  -24.3400   51.1534 C   0  0  0  1  0  0
   -0.0446  -24.9052   50.0139 C   0  0  0  1  0  0
    1.3718  -24.5327   49.6295 C   0  0  0  1  0  0
    2.4282  -24.9555   50.6583 C   0  0  0  1  0  0
    2.1107  -25.1196   51.8144 O   0  0  0  1  0  0
    3.6950  -25.1425   50.2835 O   0  0  0  1  0  0
    1.5868  -23.2390   48.8565 C   0  0  0  1  0  0
    1.7384  -24.5658   48.1528 C   0  0  0  1  0  0
   -0.7700  -25.8239   49.2367 C   0  0  0  1  0  0
   -2.0796  -26.1790   49.5981 C   0  0  0  1  0  0
   -4.6131  -25.4446   52.3663 C   0  0  0  1  0  0
   -5.8513  -26.2693   52.7854 C   0  0  0  1  0  0
   -5.7023  -32.0813   50.4259 H   0  0
   -5.5512  -30.3231   50.3067 H   0  0
   -7.1782  -31.0770   50.2461 H   0  0
   -6.6829  -31.9464   52.5733 H   0  0
   -4.2348  -30.2897   52.4688 H   0  0
   -4.3859  -32.0479   52.5880 H   0  0
   -4.9137  -31.0198   53.9606 H   0  0
   -8.6666  -31.6137   52.8539 H   0  0
  -10.5039  -30.2448   53.7794 H   0  0
  -10.1414  -27.8245   54.2248 H   0  0
   -7.9583  -26.7872   53.7231 H   0  0
   -2.9214  -27.8205   52.5664 H   0  0
   -2.8384  -26.8909   55.3224 H   0  0
   -2.5789  -29.7506   54.8899 H   0  0
   -0.6852  -29.1607   56.8573 H   0  0
   -0.4219  -29.9351   55.2563 H   0  0
    0.8099  -28.0357   54.8408 H   0  0
   -0.0779  -27.0759   56.0853 H   0  0
   -0.9824  -26.2452   54.1762 H   0  0
   -6.0965  -28.6179   50.6735 H   0  0
   -4.4427  -28.8189   51.1886 H   0  0
   -5.7574  -26.3526   50.0179 H   0  0
   -4.3228  -27.2228   49.4527 H   0  0
   -2.4065  -24.2423   52.3958 H   0  0
   -0.0846  -23.6273   51.7616 H   0  0
    3.9729  -24.2347   49.8349 H   0  0
    2.5543  -22.7923   49.0857 H   0  0
    0.6397  -22.7588   48.6105 H   0  0
    0.8726  -24.7925   47.5307 H   0  0
    2.7866  -24.8268   48.0073 H   0  0
   -0.3141  -26.2629   48.3493 H   0  0
   -2.6288  -26.8982   48.9905 H   0  0
   -4.9103  -24.4067   52.2160 H   0  0
   -3.8751  -25.4770   53.1678 H   0  0
   -6.0998  -26.0193   53.8168 H   0  0
   -6.6985  -25.9547   52.1760 H   0  0
  1  2  1  0
  2  3  1  0
  2  4  1  0
  4  5  2  0
  4  9  1  0
  5  6  1  0
  6  7  2  0
  7  8  1  0
  8  9  2  0
  9 10  1  0
 10 11  1  0
 10 19  1  0
 10 35  1  0
 11 12  2  0
 11 13  1  0
 13 14  1  0
 14 15  1  0
 14 18  1  0
 15 16  1  0
 16 17  1  0
 17 18  1  0
 19 20  1  0
 20 21  1  0
 21 22  1  0
 21 34  1  0
 22 23  2  0
 22 33  1  0
 23 24  1  0
 24 25  2  0
 25 26  1  0
 25 32  1  0
 26 27  1  0
 26 30  1  0
 26 31  1  0
 27 28  2  0
 27 29  1  0
 30 31  1  0
 32 33  2  0
 34 35  1  0
  1 36  1  0
  1 37  1  0
  1 38  1  0
  2 39  1  0
  3 40  1  0
  3 41  1  0
  3 42  1  0
  5 43  1  0
  6 44  1  0
  7 45  1  0
  8 46  1  0
 13 47  1  0
 14 48  1  0
 15 49  1  0
 16 50  1  0
 16 51  1  0
 17 52  1  0
 17 53  1  0
 18 54  1  0
 19 55  1  0
 19 56  1  0
 20 57  1  0
 20 58  1  0
 23 59  1  0
 24 60  1  0
 29 61  1  0
 30 62  1  0
 30 63  1  0
 31 64  1  0
 31 65  1  0
 32 66  1  0
 33 67  1  0
 34 68  1  0
 34 69  1  0
 35 70  1  0
 35 71  1  0
M  END
> <Name>
Molecule

> <AbsoluteEnergy>
65.0351

> <Clean Energy>
225.967

> <ConfNumber>
89

> <MOL_NUMBER>
5

> <RelativeEnergy>
16.733

> <POSE_NUMBER>
84

> <LibDockScore>
106.8438

> <HotSpots>
-8.73,-28.12,54.38,A,70,8
-0.93,-28.12,54.98,A,74,16
-0.93,-23.32,46.98,A,25,30

$$$$
Molecule
  SciTegic05072616053D

 71 75  0  0  0  0            999 V2000
   -1.4962  -26.1096   46.2164 C   0  0  0  1  0  0
   -0.9707  -25.4281   47.4924 C   0  0  0  1  0  0
    0.4899  -25.8271   47.7821 C   0  0  0  1  0  0
   -1.1552  -23.9289   47.4370 C   0  0  0  1  0  0
   -0.3437  -23.2231   46.5198 C   0  0  0  1  0  0
   -0.4241  -21.8319   46.3982 C   0  0  0  1  0  0
   -1.3251  -21.1192   47.1921 C   0  0  0  1  0  0
   -2.1462  -21.7989   48.1010 C   0  0  0  1  0  0
   -2.0923  -23.2097   48.2476 C   0  0  0  1  0  0
   -3.0287  -23.9050   49.2468 C   0  0  0  1  0  0
   -2.2757  -24.9166   50.1226 C   0  0  0  1  0  0
   -2.5882  -26.0866   50.0986 O   0  0  0  1  0  0
   -1.2483  -24.5067   50.9493 N   0  0  0  1  0  0
   -0.9312  -25.1990   52.2282 C   0  0  0  1  0  0
   -0.5842  -26.6236   52.0763 N   0  0  0  1  0  0
   -1.5540  -27.3886   52.8457 C   0  0  0  1  0  0
   -2.1278  -26.3977   53.8390 C   0  0  0  1  0  0
   -2.0749  -25.1256   53.1422 N   0  0  0  1  0  0
   -4.2145  -24.5835   48.4647 C   0  0  0  1  0  0
   -5.5797  -24.5697   49.1880 C   0  0  0  1  0  0
   -5.4144  -24.7112   50.6604 N   0  0  0  1  0  0
   -5.9348  -25.7746   51.3963 C   0  0  0  1  0  0
   -5.1223  -26.5293   52.2742 C   0  0  0  1  0  0
   -5.6592  -27.5961   53.0131 C   0  0  0  1  0  0
   -7.0200  -27.9259   52.8942 C   0  0  0  1  0  0
   -7.5995  -29.0665   53.6956 C   0  0  0  1  0  0
   -7.0764  -29.1074   55.1235 C   0  0  0  1  0  0
   -6.1136  -29.7948   55.3769 O   0  0  0  1  0  0
   -7.6828  -28.3898   56.0679 O   0  0  0  1  0  0
   -9.0392  -29.4910   53.4500 C   0  0  0  1  0  0
   -7.9089  -30.3852   53.0033 C   0  0  0  1  0  0
   -7.8396  -27.1831   52.0279 C   0  0  0  1  0  0
   -7.3024  -26.1190   51.2854 C   0  0  0  1  0  0
   -4.6106  -23.6304   51.2993 C   0  0  0  1  0  0
   -3.6922  -22.9233   50.2748 C   0  0  0  1  0  0
   -1.4322  -27.1899   46.3463 H   0  0
   -0.8646  -25.8151   45.3783 H   0  0
   -2.5289  -25.8163   46.0275 H   0  0
   -1.5688  -25.7868   48.3301 H   0  0
    1.1065  -25.5347   46.9322 H   0  0
    0.5389  -26.9096   47.9002 H   0  0
    0.8448  -25.3357   48.6880 H   0  0
    0.3589  -23.7740   45.8946 H   0  0
    0.2135  -21.3066   45.6871 H   0  0
   -1.3894  -20.0346   47.1046 H   0  0
   -2.8457  -21.2288   48.7124 H   0  0
   -0.6593  -23.6615   50.6602 H   0  0
   -0.0569  -24.6784   52.6190 H   0  0
   -0.6405  -26.9019   51.0447 H   0  0
   -1.0573  -28.2016   53.3751 H   0  0
   -2.3429  -27.7602   52.1917 H   0  0
   -3.1607  -26.6564   54.0720 H   0  0
   -1.5076  -26.3619   54.7346 H   0  0
   -1.9286  -24.3321   53.8450 H   0  0
   -4.3274  -24.0846   47.5022 H   0  0
   -3.9458  -25.6183   48.2522 H   0  0
   -6.0899  -23.6306   48.9740 H   0  0
   -6.1922  -25.3912   48.8165 H   0  0
   -4.0664  -26.2798   52.3786 H   0  0
   -5.0178  -28.1706   53.6815 H   0  0
   -8.6840  -28.7054   56.0433 H   0  0
   -9.4787  -28.9492   52.6125 H   0  0
   -9.5080  -29.8600   54.3622 H   0  0
   -7.7752  -31.2317   53.6769 H   0  0
   -7.7448  -30.3198   51.9277 H   0  0
   -8.8961  -27.4336   51.9318 H   0  0
   -7.9475  -25.5511   50.6150 H   0  0
   -5.2848  -22.8969   51.7414 H   0  0
   -3.9980  -24.0598   52.0920 H   0  0
   -2.9073  -22.3922   50.8134 H   0  0
   -4.2776  -22.1825   49.7301 H   0  0
  1  2  1  0
  2  3  1  0
  2  4  1  0
  4  5  2  0
  4  9  1  0
  5  6  1  0
  6  7  2  0
  7  8  1  0
  8  9  2  0
  9 10  1  0
 10 11  1  0
 10 19  1  0
 10 35  1  0
 11 12  2  0
 11 13  1  0
 13 14  1  0
 14 15  1  0
 14 18  1  0
 15 16  1  0
 16 17  1  0
 17 18  1  0
 19 20  1  0
 20 21  1  0
 21 22  1  0
 21 34  1  0
 22 23  2  0
 22 33  1  0
 23 24  1  0
 24 25  2  0
 25 26  1  0
 25 32  1  0
 26 27  1  0
 26 30  1  0
 26 31  1  0
 27 28  2  0
 27 29  1  0
 30 31  1  0
 32 33  2  0
 34 35  1  0
  1 36  1  0
  1 37  1  0
  1 38  1  0
  2 39  1  0
  3 40  1  0
  3 41  1  0
  3 42  1  0
  5 43  1  0
  6 44  1  0
  7 45  1  0
  8 46  1  0
 13 47  1  0
 14 48  1  0
 15 49  1  0
 16 50  1  0
 16 51  1  0
 17 52  1  0
 17 53  1  0
 18 54  1  0
 19 55  1  0
 19 56  1  0
 20 57  1  0
 20 58  1  0
 23 59  1  0
 24 60  1  0
 29 61  1  0
 30 62  1  0
 30 63  1  0
 31 64  1  0
 31 65  1  0
 32 66  1  0
 33 67  1  0
 34 68  1  0
 34 69  1  0
 35 70  1  0
 35 71  1  0
M  END
> <Name>
Molecule

> <AbsoluteEnergy>
50.9766

> <Clean Energy>
225.967

> <ConfNumber>
9

> <MOL_NUMBER>
5

> <RelativeEnergy>
2.67445

> <POSE_NUMBER>
85

> <LibDockScore>
106.5215

> <HotSpots>
-2.93,-26.32,45.98,A,15,1
-2.53,-22.32,48.19,A,29,8
-5.13,-23.32,51.38,A,54,34

$$$$
Molecule
  SciTegic05072616053D

 71 75  0  0  0  0            999 V2000
    1.6750  -22.2016   49.5433 C   0  0  0  1  0  0
    0.4787  -22.8161   48.7904 C   0  0  0  1  0  0
   -0.1252  -21.8226   47.7799 C   0  0  0  1  0  0
    0.8324  -24.1334   48.1358 C   0  0  0  1  0  0
    1.9026  -24.1098   47.2134 C   0  0  0  1  0  0
    2.3168  -25.2684   46.5483 C   0  0  0  1  0  0
    1.6616  -26.4768   46.7929 C   0  0  0  1  0  0
    0.5955  -26.5243   47.7000 C   0  0  0  1  0  0
    0.1512  -25.3689   48.3952 C   0  0  0  1  0  0
   -1.0242  -25.4785   49.3787 C   0  0  0  1  0  0
   -1.9213  -24.2361   49.2904 C   0  0  0  1  0  0
   -2.1262  -23.5530   50.2679 O   0  0  0  1  0  0
   -2.5048  -23.8843   48.0909 N   0  0  0  1  0  0
   -3.4442  -22.7361   47.9979 C   0  0  0  1  0  0
   -3.0987  -21.8158   46.9054 N   0  0  0  1  0  0
   -3.9490  -22.1710   45.7859 C   0  0  0  1  0  0
   -5.2221  -22.6607   46.4467 C   0  0  0  1  0  0
   -4.7894  -23.2466   47.7093 N   0  0  0  1  0  0
   -0.4650  -25.7478   50.8134 C   0  0  0  1  0  0
   -1.5359  -25.9782   51.9010 C   0  0  0  1  0  0
   -2.5309  -27.0158   51.5018 N   0  0  0  1  0  0
   -2.9177  -28.0527   52.3486 C   0  0  0  1  0  0
   -3.8816  -28.9985   51.9288 C   0  0  0  1  0  0
   -4.2764  -30.0476   52.7746 C   0  0  0  1  0  0
   -3.7194  -30.1688   54.0598 C   0  0  0  1  0  0
   -4.1451  -31.2993   54.9728 C   0  0  0  1  0  0
   -3.7741  -32.6951   54.4543 C   0  0  0  1  0  0
   -3.5368  -32.8566   53.2784 O   0  0  0  1  0  0
   -3.7132  -33.7312   55.2941 O   0  0  0  1  0  0
   -5.4427  -31.1395   55.7522 C   0  0  0  1  0  0
   -4.1188  -31.0453   56.4736 C   0  0  0  1  0  0
   -2.7601  -29.2349   54.4892 C   0  0  0  1  0  0
   -2.3605  -28.1889   53.6413 C   0  0  0  1  0  0
   -3.0933  -26.8658   50.1300 C   0  0  0  1  0  0
   -1.9659  -26.6949   49.0961 C   0  0  0  1  0  0
    1.3338  -21.3094   50.0683 H   0  0
    2.4338  -21.9154   48.8151 H   0  0
    2.0877  -22.9191   50.2525 H   0  0
   -0.2879  -23.0307   49.5350 H   0  0
    0.6486  -21.5395   47.0663 H   0  0
   -0.4514  -20.9335   48.3195 H   0  0
   -0.9686  -22.2753   47.2585 H   0  0
    2.4162  -23.1688   47.0160 H   0  0
    3.1467  -25.2281   45.8428 H   0  0
    1.9798  -27.3832   46.2779 H   0  0
    0.0928  -27.4751   47.8772 H   0  0
   -2.2769  -24.4486   47.2108 H   0  0
   -3.3906  -22.2019   48.9465 H   0  0
   -2.0709  -21.9401   46.6349 H   0  0
   -4.1574  -21.2923   45.1756 H   0  0
   -3.4954  -22.9741   45.2051 H   0  0
   -5.6978  -23.4198   45.8257 H   0  0
   -5.8920  -21.8215   46.6337 H   0  0
   -5.4617  -22.9576   48.4900 H   0  0
    0.1561  -24.9030   51.1111 H   0  0
    0.1857  -26.6214   50.7759 H   0  0
   -2.0581  -25.0409   52.0933 H   0  0
   -1.0464  -26.2915   52.8231 H   0  0
   -4.3236  -28.9121   50.9362 H   0  0
   -5.0174  -30.7706   52.4335 H   0  0
   -4.6592  -33.7562   55.7491 H   0  0
   -5.9269  -32.1007   55.9243 H   0  0
   -5.8853  -30.1561   55.5937 H   0  0
   -3.8567  -30.0117   56.6998 H   0  0
   -3.8976  -31.9567   57.0290 H   0  0
   -2.3246  -29.3230   55.4845 H   0  0
   -1.6123  -27.4739   53.9835 H   0  0
   -3.6782  -27.7514   49.8816 H   0  0
   -3.7443  -25.9921   50.1000 H   0  0
   -2.4111  -26.5736   48.1086 H   0  0
   -1.3686  -27.6064   49.0749 H   0  0
  1  2  1  0
  2  3  1  0
  2  4  1  0
  4  5  2  0
  4  9  1  0
  5  6  1  0
  6  7  2  0
  7  8  1  0
  8  9  2  0
  9 10  1  0
 10 11  1  0
 10 19  1  0
 10 35  1  0
 11 12  2  0
 11 13  1  0
 13 14  1  0
 14 15  1  0
 14 18  1  0
 15 16  1  0
 16 17  1  0
 17 18  1  0
 19 20  1  0
 20 21  1  0
 21 22  1  0
 21 34  1  0
 22 23  2  0
 22 33  1  0
 23 24  1  0
 24 25  2  0
 25 26  1  0
 25 32  1  0
 26 27  1  0
 26 30  1  0
 26 31  1  0
 27 28  2  0
 27 29  1  0
 30 31  1  0
 32 33  2  0
 34 35  1  0
  1 36  1  0
  1 37  1  0
  1 38  1  0
  2 39  1  0
  3 40  1  0
  3 41  1  0
  3 42  1  0
  5 43  1  0
  6 44  1  0
  7 45  1  0
  8 46  1  0
 13 47  1  0
 14 48  1  0
 15 49  1  0
 16 50  1  0
 16 51  1  0
 17 52  1  0
 17 53  1  0
 18 54  1  0
 19 55  1  0
 19 56  1  0
 20 57  1  0
 20 58  1  0
 23 59  1  0
 24 60  1  0
 29 61  1  0
 30 62  1  0
 30 63  1  0
 31 64  1  0
 31 65  1  0
 32 66  1  0
 33 67  1  0
 34 68  1  0
 34 69  1  0
 35 70  1  0
 35 71  1  0
M  END
> <Name>
Molecule

> <AbsoluteEnergy>
51.9661

> <Clean Energy>
225.967

> <ConfNumber>
17

> <MOL_NUMBER>
5

> <RelativeEnergy>
3.66401

> <POSE_NUMBER>
86

> <LibDockScore>
106.1874

> <HotSpots>
1.87,-24.92,46.78,A,22,6
-5.13,-22.92,46.19,A,18,16
-4.13,-31.12,56.59,A,79,31

$$$$
Molecule
  SciTegic05072616053D

 71 75  0  0  0  0            999 V2000
   -1.9404  -23.8684   47.3547 C   0  0  0  1  0  0
   -2.7551  -25.1555   47.5905 C   0  0  0  1  0  0
   -3.5963  -25.5209   46.3510 C   0  0  0  1  0  0
   -3.6051  -25.0664   48.8385 C   0  0  0  1  0  0
   -4.6870  -24.1602   48.7923 C   0  0  0  1  0  0
   -5.5614  -24.0133   49.8744 C   0  0  0  1  0  0
   -5.3686  -24.7776   51.0277 C   0  0  0  1  0  0
   -4.2932  -25.6724   51.1028 C   0  0  0  1  0  0
   -3.3773  -25.8351   50.0293 C   0  0  0  1  0  0
   -2.2021  -26.8196   50.1707 C   0  0  0  1  0  0
   -0.8803  -26.2041   49.6896 C   0  0  0  1  0  0
   -0.2997  -26.6958   48.7475 O   0  0  0  1  0  0
   -0.3422  -25.0967   50.3190 N   0  0  0  1  0  0
    1.0332  -24.6100   50.0111 C   0  0  0  1  0  0
    1.9913  -25.0405   51.0303 N   0  0  0  1  0  0
    3.1163  -24.1321   50.8684 C   0  0  0  1  0  0
    2.5333  -22.8524   50.2819 C   0  0  0  1  0  0
    1.1411  -23.1466   49.9546 N   0  0  0  1  0  0
   -2.5445  -28.1304   49.3993 C   0  0  0  1  0  0
   -3.8239  -28.8220   49.9204 C   0  0  0  1  0  0
   -3.8876  -28.8294   51.4117 N   0  0  0  1  0  0
   -5.0767  -29.0288   52.0979 C   0  0  0  1  0  0
   -6.2578  -28.3986   51.6516 C   0  0  0  1  0  0
   -7.4486  -28.5175   52.3809 C   0  0  0  1  0  0
   -7.4884  -29.2907   53.5573 C   0  0  0  1  0  0
   -8.7538  -29.3738   54.3833 C   0  0  0  1  0  0
   -8.6236  -28.7035   55.7546 C   0  0  0  1  0  0
   -9.2193  -29.1701   56.6986 O   0  0  0  1  0  0
   -7.8564  -27.6197   55.8981 O   0  0  0  1  0  0
  -10.1195  -29.3318   53.7107 C   0  0  0  1  0  0
   -9.5921  -30.6364   54.2566 C   0  0  0  1  0  0
   -6.3327  -29.9760   53.9741 C   0  0  0  1  0  0
   -5.1316  -29.8429   53.2546 C   0  0  0  1  0  0
   -2.6141  -28.5723   52.1346 C   0  0  0  1  0  0
   -1.8965  -27.2828   51.6461 C   0  0  0  1  0  0
   -2.6298  -23.0548   47.1292 H   0  0
   -1.2820  -24.0232   46.4999 H   0  0
   -1.3524  -23.6250   48.2397 H   0  0
   -2.0424  -25.9641   47.7527 H   0  0
   -2.9260  -25.6638   45.5034 H   0  0
   -4.2738  -24.6954   46.1326 H   0  0
   -4.1653  -26.4323   46.5348 H   0  0
   -4.8442  -23.5625   47.8945 H   0  0
   -6.3889  -23.3061   49.8179 H   0  0
   -6.0546  -24.6778   51.8689 H   0  0
   -4.1555  -26.2602   52.0104 H   0  0
   -0.9284  -24.5751   51.0464 H   0  0
    1.2532  -25.0358   49.0322 H   0  0
    2.3014  -26.0475   50.8443 H   0  0
    3.5694  -23.9230   51.8374 H   0  0
    3.8446  -24.5579   50.1781 H   0  0
    2.5795  -22.0521   51.0205 H   0  0
    3.0765  -22.5774   49.3778 H   0  0
    0.9159  -22.8002   48.9676 H   0  0
   -2.6746  -27.8962   48.3427 H   0  0
   -1.7077  -28.8233   49.4870 H   0  0
   -3.8486  -29.8498   49.5583 H   0  0
   -4.6971  -28.2996   49.5295 H   0  0
   -6.2438  -27.8142   50.7316 H   0  0
   -8.3487  -28.0088   52.0358 H   0  0
   -8.2324  -26.9342   55.1972 H   0  0
  -10.0293  -29.2838   52.6255 H   0  0
  -10.8739  -28.8968   54.3662 H   0  0
  -10.0669  -30.8981   55.2022 H   0  0
   -9.2211  -31.2843   53.4625 H   0  0
   -6.3682  -30.6126   54.8581 H   0  0
   -4.2380  -30.3696   53.5895 H   0  0
   -2.8239  -28.4799   53.2002 H   0  0
   -1.9480  -29.4237   51.9948 H   0  0
   -0.8211  -27.4304   51.7451 H   0  0
   -2.1546  -26.4693   52.3241 H   0  0
  1  2  1  0
  2  3  1  0
  2  4  1  0
  4  5  2  0
  4  9  1  0
  5  6  1  0
  6  7  2  0
  7  8  1  0
  8  9  2  0
  9 10  1  0
 10 11  1  0
 10 19  1  0
 10 35  1  0
 11 12  2  0
 11 13  1  0
 13 14  1  0
 14 15  1  0
 14 18  1  0
 15 16  1  0
 16 17  1  0
 17 18  1  0
 19 20  1  0
 20 21  1  0
 21 22  1  0
 21 34  1  0
 22 23  2  0
 22 33  1  0
 23 24  1  0
 24 25  2  0
 25 26  1  0
 25 32  1  0
 26 27  1  0
 26 30  1  0
 26 31  1  0
 27 28  2  0
 27 29  1  0
 30 31  1  0
 32 33  2  0
 34 35  1  0
  1 36  1  0
  1 37  1  0
  1 38  1  0
  2 39  1  0
  3 40  1  0
  3 41  1  0
  3 42  1  0
  5 43  1  0
  6 44  1  0
  7 45  1  0
  8 46  1  0
 13 47  1  0
 14 48  1  0
 15 49  1  0
 16 50  1  0
 16 51  1  0
 17 52  1  0
 17 53  1  0
 18 54  1  0
 19 55  1  0
 19 56  1  0
 20 57  1  0
 20 58  1  0
 23 59  1  0
 24 60  1  0
 29 61  1  0
 30 62  1  0
 30 63  1  0
 31 64  1  0
 31 65  1  0
 32 66  1  0
 33 67  1  0
 34 68  1  0
 34 69  1  0
 35 70  1  0
 35 71  1  0
M  END
> <Name>
Molecule

> <AbsoluteEnergy>
58.8497

> <Clean Energy>
225.967

> <ConfNumber>
46

> <MOL_NUMBER>
5

> <RelativeEnergy>
10.5475

> <POSE_NUMBER>
87

> <LibDockScore>
106.07

> <HotSpots>
-5.33,-24.12,49.78,A,36,6
3.07,-24.52,50.38,A,43,16
-7.93,-28.32,52.38,A,59,24

$$$$
Molecule
  SciTegic05072616053D

 71 75  0  0  0  0            999 V2000
   -3.8677  -25.3139   46.5257 C   0  0  0  1  0  0
   -3.0404  -25.1870   47.8206 C   0  0  0  1  0  0
   -2.1187  -23.9546   47.7652 C   0  0  0  1  0  0
   -3.9118  -25.1875   49.0593 C   0  0  0  1  0  0
   -4.9333  -24.2119   49.1056 C   0  0  0  1  0  0
   -5.8369  -24.1558   50.1710 C   0  0  0  1  0  0
   -5.7312  -25.0757   51.2182 C   0  0  0  1  0  0
   -4.7036  -26.0283   51.2119 C   0  0  0  1  0  0
   -3.7598  -26.1053   50.1535 C   0  0  0  1  0  0
   -2.6359  -27.1545   50.1964 C   0  0  0  1  0  0
   -1.2814  -26.5369   49.8265 C   0  0  0  1  0  0
   -0.6514  -26.9374   48.8726 O   0  0  0  1  0  0
   -0.7761  -25.5319   50.6287 N   0  0  0  1  0  0
    0.6440  -25.1043   50.5982 C   0  0  0  1  0  0
    1.2041  -25.1123   51.9535 N   0  0  0  1  0  0
    2.3437  -24.2165   51.8604 C   0  0  0  1  0  0
    1.9338  -23.1667   50.8348 C   0  0  0  1  0  0
    0.7942  -23.7327   50.1193 N   0  0  0  1  0  0
   -3.0896  -28.3519   49.2916 C   0  0  0  1  0  0
   -4.3255  -29.1166   49.8641 C   0  0  0  1  0  0
   -4.2274  -29.2568   51.3471 N   0  0  0  1  0  0
   -5.3271  -29.3360   52.1964 C   0  0  0  1  0  0
   -5.1296  -29.6090   53.5696 C   0  0  0  1  0  0
   -6.2075  -29.6605   54.4583 C   0  0  0  1  0  0
   -7.5121  -29.4101   54.0023 C   0  0  0  1  0  0
   -8.6419  -29.4049   55.0060 C   0  0  0  1  0  0
   -8.6599  -28.1203   55.8249 C   0  0  0  1  0  0
   -9.4242  -27.2343   55.5172 O   0  0  0  1  0  0
   -7.8153  -28.0016   56.8493 O   0  0  0  1  0  0
   -8.9631  -30.7072   55.7215 C   0  0  0  1  0  0
   -9.9563  -30.1240   54.7452 C   0  0  0  1  0  0
   -7.7300  -29.1586   52.6336 C   0  0  0  1  0  0
   -6.6467  -29.1307   51.7342 C   0  0  0  1  0  0
   -2.8412  -29.1956   51.8525 C   0  0  0  1  0  0
   -2.3036  -27.7744   51.6222 C   0  0  0  1  0  0
   -3.1867  -25.4062   45.6796 H   0  0
   -4.4701  -24.4139   46.4023 H   0  0
   -4.5151  -26.1893   46.5781 H   0  0
   -2.4076  -26.0716   47.8920 H   0  0
   -2.7306  -23.0620   47.6351 H   0  0
   -1.4473  -24.0543   46.9124 H   0  0
   -1.5402  -23.8768   48.6857 H   0  0
   -5.0184  -23.4887   48.2945 H   0  0
   -6.6203  -23.3981   50.1850 H   0  0
   -6.4478  -25.0520   52.0392 H   0  0
   -4.6265  -26.7298   52.0426 H   0  0
   -1.4418  -25.0378   51.3052 H   0  0
    1.1539  -25.8007   49.9326 H   0  0
    1.5293  -26.0978   52.2143 H   0  0
    2.5284  -23.7429   52.8246 H   0  0
    3.2208  -24.7590   51.5075 H   0  0
    1.6364  -22.2487   51.3417 H   0  0
    2.7546  -22.9833   50.1414 H   0  0
    0.9899  -23.7339   49.0674 H   0  0
   -3.3365  -27.9730   48.2998 H   0  0
   -2.2600  -29.0508   49.1847 H   0  0
   -4.3775  -30.1075   49.4130 H   0  0
   -5.2346  -28.5692   49.6149 H   0  0
   -4.1198  -29.7822   53.9416 H   0  0
   -6.0349  -29.8957   55.5085 H   0  0
   -6.8607  -28.1514   56.4384 H   0  0
   -9.2646  -30.5327   56.7543 H   0  0
   -8.4184  -31.5461   55.2883 H   0  0
   -9.9410  -30.6525   53.7920 H   0  0
  -10.7863  -29.6378   55.2578 H   0  0
   -8.7423  -28.9847   52.2687 H   0  0
   -6.8272  -28.9496   50.6746 H   0  0
   -2.8296  -29.4222   52.9186 H   0  0
   -2.2216  -29.9121   51.3132 H   0  0
   -1.2218  -27.7864   51.7550 H   0  0
   -2.7109  -27.1200   52.3929 H   0  0
  1  2  1  0
  2  3  1  0
  2  4  1  0
  4  5  2  0
  4  9  1  0
  5  6  1  0
  6  7  2  0
  7  8  1  0
  8  9  2  0
  9 10  1  0
 10 11  1  0
 10 19  1  0
 10 35  1  0
 11 12  2  0
 11 13  1  0
 13 14  1  0
 14 15  1  0
 14 18  1  0
 15 16  1  0
 16 17  1  0
 17 18  1  0
 19 20  1  0
 20 21  1  0
 21 22  1  0
 21 34  1  0
 22 23  2  0
 22 33  1  0
 23 24  1  0
 24 25  2  0
 25 26  1  0
 25 32  1  0
 26 27  1  0
 26 30  1  0
 26 31  1  0
 27 28  2  0
 27 29  1  0
 30 31  1  0
 32 33  2  0
 34 35  1  0
  1 36  1  0
  1 37  1  0
  1 38  1  0
  2 39  1  0
  3 40  1  0
  3 41  1  0
  3 42  1  0
  5 43  1  0
  6 44  1  0
  7 45  1  0
  8 46  1  0
 13 47  1  0
 14 48  1  0
 15 49  1  0
 16 50  1  0
 16 51  1  0
 17 52  1  0
 17 53  1  0
 18 54  1  0
 19 55  1  0
 19 56  1  0
 20 57  1  0
 20 58  1  0
 23 59  1  0
 24 60  1  0
 29 61  1  0
 30 62  1  0
 30 63  1  0
 31 64  1  0
 31 65  1  0
 32 66  1  0
 33 67  1  0
 34 68  1  0
 34 69  1  0
 35 70  1  0
 35 71  1  0
M  END
> <Name>
Molecule

> <AbsoluteEnergy>
59.2668

> <Clean Energy>
225.967

> <ConfNumber>
54

> <MOL_NUMBER>
5

> <RelativeEnergy>
10.9647

> <POSE_NUMBER>
88

> <LibDockScore>
105.5691

> <HotSpots>
-2.53,-22.32,48.19,A,29,3
-5.13,-23.32,51.38,A,54,6
-7.73,-27.92,56.98,P,70,29

$$$$
Molecule
  SciTegic05072616053D

 71 75  0  0  0  0            999 V2000
   -7.8258  -28.6181   55.7111 C   0  0  0  1  0  0
   -7.6311  -29.8259   54.7639 C   0  0  0  1  0  0
   -8.6578  -30.9125   55.1414 C   0  0  0  1  0  0
   -6.2168  -30.3804   54.6756 C   0  0  0  1  0  0
   -5.6775  -30.9440   55.8615 C   0  0  0  1  0  0
   -4.3974  -31.4994   55.9039 C   0  0  0  1  0  0
   -3.6186  -31.5210   54.7515 C   0  0  0  1  0  0
   -4.1219  -30.9812   53.5645 C   0  0  0  1  0  0
   -5.4078  -30.3806   53.4774 C   0  0  0  1  0  0
   -5.8165  -29.8226   52.0881 C   0  0  0  1  0  0
   -7.1571  -30.4495   51.6673 C   0  0  0  1  0  0
   -7.2702  -31.6516   51.5572 O   0  0  0  1  0  0
   -8.2586  -29.6590   51.4081 N   0  0  0  1  0  0
   -9.5635  -30.2589   51.0371 C   0  0  0  1  0  0
  -10.5633  -29.2115   50.8114 N   0  0  0  1  0  0
  -11.3241  -29.6198   49.6465 C   0  0  0  1  0  0
  -10.3233  -30.3972   48.8166 C   0  0  0  1  0  0
   -9.4329  -31.0194   49.7863 N   0  0  0  1  0  0
   -4.7609  -30.1564   50.9744 C   0  0  0  1  0  0
   -3.3681  -29.5444   51.2361 C   0  0  0  1  0  0
   -3.4398  -28.0629   51.4302 N   0  0  0  1  0  0
   -2.5355  -27.1833   50.8358 C   0  0  0  1  0  0
   -1.7798  -27.5586   49.7007 C   0  0  0  1  0  0
   -0.8669  -26.6651   49.1167 C   0  0  0  1  0  0
   -0.6985  -25.3755   49.6490 C   0  0  0  1  0  0
    0.2816  -24.4153   49.0189 C   0  0  0  1  0  0
    1.6168  -24.3756   49.7431 C   0  0  0  1  0  0
    1.7367  -23.6717   50.7201 O   0  0  0  1  0  0
    2.6222  -25.1176   49.2822 O   0  0  0  1  0  0
   -0.2332  -23.1302   48.3873 C   0  0  0  1  0  0
    0.2838  -24.2417   47.5076 C   0  0  0  1  0  0
   -1.4466  -24.9872   50.7734 C   0  0  0  1  0  0
   -2.3549  -25.8827   51.3616 C   0  0  0  1  0  0
   -4.5388  -27.5736   52.3170 C   0  0  0  1  0  0
   -5.8765  -28.2685   51.9835 C   0  0  0  1  0  0
   -7.6638  -28.9250   56.7444 H   0  0
   -8.8334  -28.2170   55.6012 H   0  0
   -7.1041  -27.8432   55.4527 H   0  0
   -7.8055  -29.4605   53.7519 H   0  0
   -9.6700  -30.5241   55.0284 H   0  0
   -8.5004  -31.2321   56.1715 H   0  0
   -8.5292  -31.7689   54.4795 H   0  0
   -6.2823  -30.9431   56.7683 H   0  0
   -4.0103  -31.9138   56.8348 H   0  0
   -2.6199  -31.9571   54.7741 H   0  0
   -3.5029  -31.0224   52.6683 H   0  0
   -8.1696  -28.5949   51.4760 H   0  0
   -9.8734  -30.9102   51.8543 H   0  0
  -11.2101  -29.1364   51.6605 H   0  0
  -11.6697  -28.7458   49.0945 H   0  0
  -12.1492  -30.2677   49.9423 H   0  0
  -10.8361  -31.1628   48.2344 H   0  0
   -9.7617  -29.7182   48.1750 H   0  0
   -8.4233  -30.9697   49.4353 H   0  0
   -4.6602  -31.2390   50.8968 H   0  0
   -5.1304  -29.7917   50.0160 H   0  0
   -2.9387  -30.0004   52.1282 H   0  0
   -2.7160  -29.7617   50.3902 H   0  0
   -1.9074  -28.5534   49.2739 H   0  0
   -0.2866  -26.9733   48.2470 H   0  0
    2.7473  -24.8196   48.2832 H   0  0
    0.4909  -22.3208   48.4804 H   0  0
   -1.3225  -23.0925   48.3899 H   0  0
   -0.5297  -24.7963   47.0400 H   0  0
    1.2839  -24.0256   47.1318 H   0  0
   -1.3216  -23.9879   51.1904 H   0  0
   -2.9282  -25.5712   52.2348 H   0  0
   -4.6523  -26.4971   52.1887 H   0  0
   -4.2786  -27.7762   53.3559 H   0  0
   -6.6442  -27.8975   52.6625 H   0  0
   -6.1726  -27.9942   50.9710 H   0  0
  1  2  1  0
  2  3  1  0
  2  4  1  0
  4  5  2  0
  4  9  1  0
  5  6  1  0
  6  7  2  0
  7  8  1  0
  8  9  2  0
  9 10  1  0
 10 11  1  0
 10 19  1  0
 10 35  1  0
 11 12  2  0
 11 13  1  0
 13 14  1  0
 14 15  1  0
 14 18  1  0
 15 16  1  0
 16 17  1  0
 17 18  1  0
 19 20  1  0
 20 21  1  0
 21 22  1  0
 21 34  1  0
 22 23  2  0
 22 33  1  0
 23 24  1  0
 24 25  2  0
 25 26  1  0
 25 32  1  0
 26 27  1  0
 26 30  1  0
 26 31  1  0
 27 28  2  0
 27 29  1  0
 30 31  1  0
 32 33  2  0
 34 35  1  0
  1 36  1  0
  1 37  1  0
  1 38  1  0
  2 39  1  0
  3 40  1  0
  3 41  1  0
  3 42  1  0
  5 43  1  0
  6 44  1  0
  7 45  1  0
  8 46  1  0
 13 47  1  0
 14 48  1  0
 15 49  1  0
 16 50  1  0
 16 51  1  0
 17 52  1  0
 17 53  1  0
 18 54  1  0
 19 55  1  0
 19 56  1  0
 20 57  1  0
 20 58  1  0
 23 59  1  0
 24 60  1  0
 29 61  1  0
 30 62  1  0
 30 63  1  0
 31 64  1  0
 31 65  1  0
 32 66  1  0
 33 67  1  0
 34 68  1  0
 34 69  1  0
 35 70  1  0
 35 71  1  0
M  END
> <Name>
Molecule

> <AbsoluteEnergy>
59.1572

> <Clean Energy>
225.967

> <ConfNumber>
52

> <MOL_NUMBER>
5

> <RelativeEnergy>
10.8551

> <POSE_NUMBER>
89

> <LibDockScore>
105.204

> <HotSpots>
-4.13,-31.12,56.59,A,79,5
-10.33,-29.72,49.78,A,35,16
2.47,-25.32,48.78,P,32,29

$$$$
Molecule
  SciTegic05072616053D

 71 75  0  0  0  0            999 V2000
    0.6117  -24.3536   49.4827 C   0  0  0  1  0  0
   -0.4151  -24.7081   50.5776 C   0  0  0  1  0  0
    0.2908  -25.1190   51.8845 C   0  0  0  1  0  0
   -1.4036  -25.7621   50.1234 C   0  0  0  1  0  0
   -0.8535  -26.9800   49.6656 C   0  0  0  1  0  0
   -1.6711  -28.0552   49.3020 C   0  0  0  1  0  0
   -3.0605  -27.9351   49.4054 C   0  0  0  1  0  0
   -3.6280  -26.7213   49.8189 C   0  0  0  1  0  0
   -2.8284  -25.5930   50.1429 C   0  0  0  1  0  0
   -3.5008  -24.2552   50.5008 C   0  0  0  1  0  0
   -2.8537  -23.0843   49.7537 C   0  0  0  1  0  0
   -2.5496  -22.0717   50.3441 O   0  0  0  1  0  0
   -2.6317  -23.1820   48.3947 N   0  0  0  1  0  0
   -1.9363  -22.1127   47.6442 C   0  0  0  1  0  0
   -0.7802  -22.6071   46.8934 N   0  0  0  1  0  0
   -0.6135  -21.6219   45.8363 C   0  0  0  1  0  0
   -2.0189  -21.1195   45.5299 C   0  0  0  1  0  0
   -2.8456  -21.5601   46.6472 N   0  0  0  1  0  0
   -3.4736  -24.0766   52.0500 C   0  0  0  1  0  0
   -4.2943  -25.1617   52.7928 C   0  0  0  1  0  0
   -5.6028  -25.4319   52.1162 N   0  0  0  1  0  0
   -6.3275  -26.6096   52.2779 C   0  0  0  1  0  0
   -5.7475  -27.7282   52.9130 C   0  0  0  1  0  0
   -6.4303  -28.9520   52.9734 C   0  0  0  1  0  0
   -7.7029  -29.0853   52.3883 C   0  0  0  1  0  0
   -8.3863  -30.4343   52.3263 C   0  0  0  1  0  0
   -9.3545  -30.7195   53.4743 C   0  0  0  1  0  0
   -8.9164  -30.9520   54.5768 O   0  0  0  1  0  0
  -10.6727  -30.7275   53.2559 O   0  0  0  1  0  0
   -8.7771  -30.9225   50.9385 C   0  0  0  1  0  0
   -7.6648  -31.6142   51.6844 C   0  0  0  1  0  0
   -8.3263  -27.9547   51.8305 C   0  0  0  1  0  0
   -7.6497  -26.7239   51.7852 C   0  0  0  1  0  0
   -6.0565  -24.3671   51.1877 C   0  0  0  1  0  0
   -5.0174  -24.1298   50.0712 C   0  0  0  1  0  0
    1.2433  -25.2225   49.2979 H   0  0
    1.2326  -23.5302   49.8357 H   0  0
    0.0988  -24.0652   48.5652 H   0  0
   -0.9948  -23.8067   50.7766 H   0  0
    0.9136  -24.2912   52.2235 H   0  0
    0.9243  -25.9834   51.6856 H   0  0
   -0.4463  -25.3665   52.6484 H   0  0
    0.2292  -27.0840   49.5943 H   0  0
   -1.2272  -28.9825   48.9397 H   0  0
   -3.7012  -28.7835   49.1650 H   0  0
   -4.7125  -26.6415   49.8937 H   0  0
   -2.9705  -24.0517   47.8714 H   0  0
   -1.6100  -21.3817   48.3840 H   0  0
    0.0868  -22.6274   47.5201 H   0  0
   -0.1854  -22.0910   44.9504 H   0  0
    0.0075  -20.7977   46.1874 H   0  0
   -2.3793  -21.5635   44.6020 H   0  0
   -2.0201  -20.0310   45.4719 H   0  0
   -3.3744  -20.7258   47.0585 H   0  0
   -2.4401  -24.1166   52.3941 H   0  0
   -3.8743  -23.0949   52.3025 H   0  0
   -4.4831  -24.8320   53.8144 H   0  0
   -3.7155  -26.0846   52.8307 H   0  0
   -4.7580  -27.6403   53.3616 H   0  0
   -5.9727  -29.8040   53.4762 H   0  0
  -10.8082  -31.4311   52.4883 H   0  0
   -8.3916  -30.2643   50.1599 H   0  0
   -9.7004  -31.5012   50.9643 H   0  0
   -7.9935  -32.5625   52.1097 H   0  0
   -6.6845  -31.3241   51.3063 H   0  0
   -9.3378  -28.0334   51.4320 H   0  0
   -8.1475  -25.8491   51.3668 H   0  0
   -7.0052  -24.6616   50.7390 H   0  0
   -6.2031  -23.4416   51.7446 H   0  0
   -5.1792  -23.1353   49.6554 H   0  0
   -5.2103  -24.8375   49.2649 H   0  0
  1  2  1  0
  2  3  1  0
  2  4  1  0
  4  5  2  0
  4  9  1  0
  5  6  1  0
  6  7  2  0
  7  8  1  0
  8  9  2  0
  9 10  1  0
 10 11  1  0
 10 19  1  0
 10 35  1  0
 11 12  2  0
 11 13  1  0
 13 14  1  0
 14 15  1  0
 14 18  1  0
 15 16  1  0
 16 17  1  0
 17 18  1  0
 19 20  1  0
 20 21  1  0
 21 22  1  0
 21 34  1  0
 22 23  2  0
 22 33  1  0
 23 24  1  0
 24 25  2  0
 25 26  1  0
 25 32  1  0
 26 27  1  0
 26 30  1  0
 26 31  1  0
 27 28  2  0
 27 29  1  0
 30 31  1  0
 32 33  2  0
 34 35  1  0
  1 36  1  0
  1 37  1  0
  1 38  1  0
  2 39  1  0
  3 40  1  0
  3 41  1  0
  3 42  1  0
  5 43  1  0
  6 44  1  0
  7 45  1  0
  8 46  1  0
 13 47  1  0
 14 48  1  0
 15 49  1  0
 16 50  1  0
 16 51  1  0
 17 52  1  0
 17 53  1  0
 18 54  1  0
 19 55  1  0
 19 56  1  0
 20 57  1  0
 20 58  1  0
 23 59  1  0
 24 60  1  0
 29 61  1  0
 30 62  1  0
 30 63  1  0
 31 64  1  0
 31 65  1  0
 32 66  1  0
 33 67  1  0
 34 68  1  0
 34 69  1  0
 35 70  1  0
 35 71  1  0
M  END
> <Name>
Molecule

> <AbsoluteEnergy>
57.6598

> <Clean Energy>
225.967

> <ConfNumber>
39

> <MOL_NUMBER>
5

> <RelativeEnergy>
9.35762

> <POSE_NUMBER>
90

> <LibDockScore>
104.2613

> <HotSpots>
-2.53,-21.12,45.98,A,16,17
-8.53,-31.32,51.19,A,51,30
-5.93,-24.72,51.19,A,53,34

$$$$
Molecule
  SciTegic05072616053D

 71 75  0  0  0  0            999 V2000
   -6.2441  -31.5359   54.8800 C   0  0  0  1  0  0
   -5.0992  -31.2261   53.8948 C   0  0  0  1  0  0
   -4.4870  -32.5171   53.3207 C   0  0  0  1  0  0
   -4.0441  -30.3309   54.5080 C   0  0  0  1  0  0
   -3.3255  -30.8600   55.6039 C   0  0  0  1  0  0
   -2.3359  -30.1147   56.2530 C   0  0  0  1  0  0
   -2.0445  -28.8219   55.8129 C   0  0  0  1  0  0
   -2.7397  -28.2790   54.7240 C   0  0  0  1  0  0
   -3.7485  -29.0070   54.0400 C   0  0  0  1  0  0
   -4.4827  -28.3784   52.8404 C   0  0  0  1  0  0
   -6.0001  -28.6014   52.9822 C   0  0  0  1  0  0
   -6.5023  -28.7022   54.0804 O   0  0  0  1  0  0
   -6.8128  -28.7028   51.8720 N   0  0  0  1  0  0
   -8.2592  -29.0346   52.0041 C   0  0  0  1  0  0
   -8.9833  -28.6161   50.7977 N   0  0  0  1  0  0
   -9.8583  -29.7133   50.4192 C   0  0  0  1  0  0
   -9.1583  -30.9445   50.9549 C   0  0  0  1  0  0
   -8.4990  -30.4798   52.1635 N   0  0  0  1  0  0
   -4.3366  -26.8212   52.7529 C   0  0  0  1  0  0
   -3.0127  -26.3423   52.1194 C   0  0  0  1  0  0
   -2.9038  -26.7884   50.7002 N   0  0  0  1  0  0
   -2.1124  -26.1052   49.7699 C   0  0  0  1  0  0
   -1.2443  -25.0639   50.1782 C   0  0  0  1  0  0
   -0.4556  -24.3705   49.2437 C   0  0  0  1  0  0
   -0.5147  -24.7039   47.8794 C   0  0  0  1  0  0
    0.3308  -23.9577   46.8728 C   0  0  0  1  0  0
    1.4536  -24.8052   46.2973 C   0  0  0  1  0  0
    2.5644  -24.7084   46.7665 O   0  0  0  1  0  0
    1.1851  -25.6331   45.2890 O   0  0  0  1  0  0
    0.5816  -22.4690   47.0620 C   0  0  0  1  0  0
   -0.3317  -22.9392   45.9570 C   0  0  0  1  0  0
   -1.3663  -25.7397   47.4590 C   0  0  0  1  0  0
   -2.1578  -26.4307   48.3929 C   0  0  0  1  0  0
   -3.7039  -27.9966   50.3337 C   0  0  0  1  0  0
   -3.8706  -28.9777   51.5190 C   0  0  0  1  0  0
   -5.8492  -32.1451   55.6930 H   0  0
   -7.0131  -32.1017   54.3541 H   0  0
   -6.6647  -30.6115   55.2757 H   0  0
   -5.5352  -30.6717   53.0638 H   0  0
   -5.2694  -33.0754   52.8067 H   0  0
   -4.1055  -33.1189   54.1456 H   0  0
   -3.6804  -32.2789   52.6273 H   0  0
   -3.5470  -31.8695   55.9503 H   0  0
   -1.7950  -30.5407   57.0980 H   0  0
   -1.2763  -28.2350   56.3164 H   0  0
   -2.4990  -27.2688   54.3927 H   0  0
   -6.3972  -28.5404   50.8995 H   0  0
   -8.6083  -28.5103   52.8937 H   0  0
   -9.5668  -27.7446   51.0096 H   0  0
   -9.9418  -29.7730   49.3340 H   0  0
  -10.8324  -29.6000   50.8950 H   0  0
   -9.8896  -31.7154   51.1979 H   0  0
   -8.4195  -31.2992   50.2362 H   0  0
   -7.5665  -30.9900   52.2856 H   0  0
   -4.4153  -26.4031   53.7565 H   0  0
   -5.1674  -26.4227   52.1706 H   0  0
   -2.1745  -26.7463   52.6871 H   0  0
   -2.9690  -25.2538   52.1573 H   0  0
   -1.1867  -24.7958   51.2331 H   0  0
    0.2048  -23.5706   49.5786 H   0  0
    0.7735  -25.0256   44.5380 H   0  0
    1.5592  -22.1762   46.6789 H   0  0
    0.0195  -22.0737   47.9081 H   0  0
   -1.3812  -22.7940   46.2131 H   0  0
    0.1587  -22.8981   44.9844 H   0  0
   -1.4133  -26.0086   46.4037 H   0  0
   -2.8165  -27.2293   48.0516 H   0  0
   -3.2109  -28.5141   49.5108 H   0  0
   -4.6897  -27.6799   49.9930 H   0  0
   -4.4969  -29.8078   51.1923 H   0  0
   -2.8948  -29.4038   51.7524 H   0  0
  1  2  1  0
  2  3  1  0
  2  4  1  0
  4  5  2  0
  4  9  1  0
  5  6  1  0
  6  7  2  0
  7  8  1  0
  8  9  2  0
  9 10  1  0
 10 11  1  0
 10 19  1  0
 10 35  1  0
 11 12  2  0
 11 13  1  0
 13 14  1  0
 14 15  1  0
 14 18  1  0
 15 16  1  0
 16 17  1  0
 17 18  1  0
 19 20  1  0
 20 21  1  0
 21 22  1  0
 21 34  1  0
 22 23  2  0
 22 33  1  0
 23 24  1  0
 24 25  2  0
 25 26  1  0
 25 32  1  0
 26 27  1  0
 26 30  1  0
 26 31  1  0
 27 28  2  0
 27 29  1  0
 30 31  1  0
 32 33  2  0
 34 35  1  0
  1 36  1  0
  1 37  1  0
  1 38  1  0
  2 39  1  0
  3 40  1  0
  3 41  1  0
  3 42  1  0
  5 43  1  0
  6 44  1  0
  7 45  1  0
  8 46  1  0
 13 47  1  0
 14 48  1  0
 15 49  1  0
 16 50  1  0
 16 51  1  0
 17 52  1  0
 17 53  1  0
 18 54  1  0
 19 55  1  0
 19 56  1  0
 20 57  1  0
 20 58  1  0
 23 59  1  0
 24 60  1  0
 29 61  1  0
 30 62  1  0
 30 63  1  0
 31 64  1  0
 31 65  1  0
 32 66  1  0
 33 67  1  0
 34 68  1  0
 34 69  1  0
 35 70  1  0
 35 71  1  0
M  END
> <Name>
Molecule

> <AbsoluteEnergy>
52.4003

> <Clean Energy>
225.967

> <ConfNumber>
21

> <MOL_NUMBER>
5

> <RelativeEnergy>
4.09816

> <POSE_NUMBER>
91

> <LibDockScore>
104.0914

> <HotSpots>
-1.53,-28.72,56.38,A,78,7
-9.33,-29.92,51.19,A,52,16
0.27,-22.52,46.78,A,23,30

$$$$
Molecule
  SciTegic05072616053D

 71 75  0  0  0  0            999 V2000
   -5.1827  -23.1040   48.0150 C   0  0  0  1  0  0
   -3.7644  -23.4201   48.5318 C   0  0  0  1  0  0
   -2.7673  -22.3077   48.1557 C   0  0  0  1  0  0
   -3.2785  -24.7803   48.0798 C   0  0  0  1  0  0
   -3.0916  -24.9477   46.6880 C   0  0  0  1  0  0
   -2.6257  -26.1540   46.1571 C   0  0  0  1  0  0
   -2.3241  -27.2148   47.0126 C   0  0  0  1  0  0
   -2.4960  -27.0697   48.3949 C   0  0  0  1  0  0
   -2.9940  -25.8716   48.9678 C   0  0  0  1  0  0
   -3.1934  -25.7799   50.4894 C   0  0  0  1  0  0
   -2.0549  -24.9730   51.1305 C   0  0  0  1  0  0
   -2.2979  -23.9963   51.8037 O   0  0  0  1  0  0
   -0.7415  -25.3587   50.9546 N   0  0  0  1  0  0
    0.3742  -24.5439   51.4962 C   0  0  0  1  0  0
    0.3828  -24.5228   52.9622 N   0  0  0  1  0  0
    1.7561  -24.1804   53.2911 C   0  0  0  1  0  0
    2.5942  -24.8249   52.1963 C   0  0  0  1  0  0
    1.6742  -25.0832   51.0948 N   0  0  0  1  0  0
   -3.1257  -27.1589   51.2460 C   0  0  0  1  0  0
   -4.3730  -28.0599   51.1402 C   0  0  0  1  0  0
   -5.5800  -27.2926   51.5102 N   0  0  0  1  0  0
   -6.3955  -27.6540   52.5736 C   0  0  0  1  0  0
   -5.9573  -28.6433   53.4804 C   0  0  0  1  0  0
   -6.7727  -29.0457   54.5477 C   0  0  0  1  0  0
   -8.0404  -28.4657   54.7286 C   0  0  0  1  0  0
   -8.9194  -28.9337   55.8637 C   0  0  0  1  0  0
   -9.3780  -30.3737   55.6852 C   0  0  0  1  0  0
  -10.5394  -30.6060   55.4407 O   0  0  0  1  0  0
   -8.4753  -31.3484   55.8035 O   0  0  0  1  0  0
   -9.8256  -27.9435   56.5818 C   0  0  0  1  0  0
   -8.5927  -28.4710   57.2748 C   0  0  0  1  0  0
   -8.4775  -27.4617   53.8443 C   0  0  0  1  0  0
   -7.6597  -27.0549   52.7739 C   0  0  0  1  0  0
   -5.8022  -26.0887   50.6783 C   0  0  0  1  0  0
   -4.5924  -25.1443   50.8239 C   0  0  0  1  0  0
   -5.1435  -23.0007   46.9306 H   0  0
   -5.5094  -22.1592   48.4495 H   0  0
   -5.8734  -23.9010   48.2902 H   0  0
   -3.8247  -23.4552   49.6196 H   0  0
   -3.1126  -21.3691   48.5891 H   0  0
   -2.7467  -22.2106   47.0702 H   0  0
   -1.7717  -22.5481   48.5287 H   0  0
   -3.3153  -24.1194   46.0157 H   0  0
   -2.4986  -26.2656   45.0803 H   0  0
   -1.9549  -28.1559   46.6050 H   0  0
   -2.2394  -27.9023   49.0499 H   0  0
   -0.5243  -26.2594   50.4193 H   0  0
    0.2164  -23.5423   51.0963 H   0  0
   -0.2835  -23.7683   53.3252 H   0  0
    2.0259  -24.5983   54.2610 H   0  0
    1.8876  -23.0985   53.2725 H   0  0
    3.0180  -25.7629   52.5551 H   0  0
    3.3769  -24.1379   51.8745 H   0  0
    2.0176  -24.5864   50.2115 H   0  0
   -2.2667  -27.7162   50.8724 H   0  0
   -2.9300  -26.9662   52.3008 H   0  0
   -4.4736  -28.4210   50.1167 H   0  0
   -4.2651  -28.9106   51.8131 H   0  0
   -4.9757  -29.0987   53.3496 H   0  0
   -6.4222  -29.8113   55.2399 H   0  0
   -8.0537  -31.2223   56.7569 H   0  0
  -10.7314  -28.4250   56.9503 H   0  0
   -9.6775  -26.9280   56.2146 H   0  0
   -7.7879  -27.7359   57.2787 H   0  0
   -8.8412  -29.2335   58.0130 H   0  0
   -9.4531  -26.9976   53.9892 H   0  0
   -8.0030  -26.2737   52.0957 H   0  0
   -6.7051  -25.5765   51.0106 H   0  0
   -5.9108  -26.3822   49.6342 H   0  0
   -4.7474  -24.2813   50.1764 H   0  0
   -4.5681  -24.7681   51.8466 H   0  0
  1  2  1  0
  2  3  1  0
  2  4  1  0
  4  5  2  0
  4  9  1  0
  5  6  1  0
  6  7  2  0
  7  8  1  0
  8  9  2  0
  9 10  1  0
 10 11  1  0
 10 19  1  0
 10 35  1  0
 11 12  2  0
 11 13  1  0
 13 14  1  0
 14 15  1  0
 14 18  1  0
 15 16  1  0
 16 17  1  0
 17 18  1  0
 19 20  1  0
 20 21  1  0
 21 22  1  0
 21 34  1  0
 22 23  2  0
 22 33  1  0
 23 24  1  0
 24 25  2  0
 25 26  1  0
 25 32  1  0
 26 27  1  0
 26 30  1  0
 26 31  1  0
 27 28  2  0
 27 29  1  0
 30 31  1  0
 32 33  2  0
 34 35  1  0
  1 36  1  0
  1 37  1  0
  1 38  1  0
  2 39  1  0
  3 40  1  0
  3 41  1  0
  3 42  1  0
  5 43  1  0
  6 44  1  0
  7 45  1  0
  8 46  1  0
 13 47  1  0
 14 48  1  0
 15 49  1  0
 16 50  1  0
 16 51  1  0
 17 52  1  0
 17 53  1  0
 18 54  1  0
 19 55  1  0
 19 56  1  0
 20 57  1  0
 20 58  1  0
 23 59  1  0
 24 60  1  0
 29 61  1  0
 30 62  1  0
 30 63  1  0
 31 64  1  0
 31 65  1  0
 32 66  1  0
 33 67  1  0
 34 68  1  0
 34 69  1  0
 35 70  1  0
 35 71  1  0
M  END
> <Name>
Molecule

> <AbsoluteEnergy>
52.6114

> <Clean Energy>
225.967

> <ConfNumber>
23

> <MOL_NUMBER>
5

> <RelativeEnergy>
4.30926

> <POSE_NUMBER>
92

> <LibDockScore>
103.398

> <HotSpots>
-2.53,-22.32,48.19,A,29,3
-2.93,-26.32,45.98,A,15,6
-7.93,-28.32,52.38,A,59,33

$$$$
Molecule
  SciTegic05072616053D

 71 75  0  0  0  0            999 V2000
   -2.1924  -24.1180   46.7212 C   0  0  0  1  0  0
   -3.4815  -24.8460   47.1505 C   0  0  0  1  0  0
   -4.3003  -25.1778   45.8801 C   0  0  0  1  0  0
   -4.2287  -24.0977   48.2460 C   0  0  0  1  0  0
   -5.4502  -23.4771   47.8763 C   0  0  0  1  0  0
   -6.2206  -22.7518   48.7874 C   0  0  0  1  0  0
   -5.7825  -22.6134   50.1007 C   0  0  0  1  0  0
   -4.5799  -23.2046   50.4966 C   0  0  0  1  0  0
   -3.7729  -23.9729   49.6123 C   0  0  0  1  0  0
   -2.4663  -24.5644   50.2042 C   0  0  0  1  0  0
   -1.2776  -23.6850   49.7813 C   0  0  0  1  0  0
   -1.4540  -22.6816   49.1246 O   0  0  0  1  0  0
    0.0133  -24.0207   50.1356 N   0  0  0  1  0  0
    1.1775  -23.3091   49.5545 C   0  0  0  1  0  0
    2.3848  -23.5822   50.3429 N   0  0  0  1  0  0
    3.4288  -23.9402   49.3999 C   0  0  0  1  0  0
    2.6740  -24.5257   48.2240 C   0  0  0  1  0  0
    1.4209  -23.7866   48.1860 N   0  0  0  1  0  0
   -2.1954  -26.0619   49.8619 C   0  0  0  1  0  0
   -3.3297  -27.0013   50.3195 C   0  0  0  1  0  0
   -3.5532  -26.9012   51.7950 N   0  0  0  1  0  0
   -3.7204  -28.0234   52.6053 C   0  0  0  1  0  0
   -4.6730  -28.0124   53.6508 C   0  0  0  1  0  0
   -4.8549  -29.1372   54.4716 C   0  0  0  1  0  0
   -4.0897  -30.2969   54.2616 C   0  0  0  1  0  0
   -4.2906  -31.5101   55.1378 C   0  0  0  1  0  0
   -5.2066  -32.5457   54.5077 C   0  0  0  1  0  0
   -6.3550  -32.6205   54.8807 O   0  0  0  1  0  0
   -4.7208  -33.3449   53.5595 O   0  0  0  1  0  0
   -4.3255  -31.3416   56.6493 C   0  0  0  1  0  0
   -3.1378  -32.0055   55.9974 C   0  0  0  1  0  0
   -3.1381  -30.3210   53.2275 C   0  0  0  1  0  0
   -2.9512  -29.1941   52.4106 C   0  0  0  1  0  0
   -3.6027  -25.5167   52.3576 C   0  0  0  1  0  0
   -2.4906  -24.6175   51.7725 C   0  0  0  1  0  0
   -2.4416  -23.1935   46.2004 H   0  0
   -1.6013  -24.7597   46.0678 H   0  0
   -1.6069  -23.8790   47.6090 H   0  0
   -3.2488  -25.7957   47.6321 H   0  0
   -3.7216  -25.8257   45.2217 H   0  0
   -4.5620  -24.2596   45.3543 H   0  0
   -5.2153  -25.6934   46.1717 H   0  0
   -5.7984  -23.5696   46.8476 H   0  0
   -7.1594  -22.2968   48.4717 H   0  0
   -6.3752  -22.0459   50.8181 H   0  0
   -4.2463  -23.0715   51.5257 H   0  0
    0.1770  -24.8079   50.8416 H   0  0
    0.9585  -22.2413   49.5568 H   0  0
    2.6707  -22.7050   50.8849 H   0  0
    4.0882  -24.6923   49.8331 H   0  0
    3.9765  -23.0509   49.0878 H   0  0
    3.2333  -24.3632   47.3026 H   0  0
    2.4795  -25.5847   48.3935 H   0  0
    0.6261  -24.4342   47.8799 H   0  0
   -2.0674  -26.1615   48.7840 H   0  0
   -1.2657  -26.3728   50.3384 H   0  0
   -4.2494  -26.7342   49.7991 H   0  0
   -3.0707  -28.0292   50.0657 H   0  0
   -5.2738  -27.1191   53.8216 H   0  0
   -5.5920  -29.1106   55.2741 H   0  0
   -3.8927  -33.8185   53.9982 H   0  0
   -4.9869  -32.0704   57.1179 H   0  0
   -4.1027  -30.3156   56.9420 H   0  0
   -2.2810  -31.3339   55.9432 H   0  0
   -3.1658  -33.0885   56.1176 H   0  0
   -2.5426  -31.2182   53.0589 H   0  0
   -2.2044  -29.2221   51.6171 H   0  0
   -3.4887  -25.5661   53.4405 H   0  0
   -4.5737  -25.0750   52.1338 H   0  0
   -2.6196  -23.6060   52.1576 H   0  0
   -1.5253  -24.9789   52.1271 H   0  0
  1  2  1  0
  2  3  1  0
  2  4  1  0
  4  5  2  0
  4  9  1  0
  5  6  1  0
  6  7  2  0
  7  8  1  0
  8  9  2  0
  9 10  1  0
 10 11  1  0
 10 19  1  0
 10 35  1  0
 11 12  2  0
 11 13  1  0
 13 14  1  0
 14 15  1  0
 14 18  1  0
 15 16  1  0
 16 17  1  0
 17 18  1  0
 19 20  1  0
 20 21  1  0
 21 22  1  0
 21 34  1  0
 22 23  2  0
 22 33  1  0
 23 24  1  0
 24 25  2  0
 25 26  1  0
 25 32  1  0
 26 27  1  0
 26 30  1  0
 26 31  1  0
 27 28  2  0
 27 29  1  0
 30 31  1  0
 32 33  2  0
 34 35  1  0
  1 36  1  0
  1 37  1  0
  1 38  1  0
  2 39  1  0
  3 40  1  0
  3 41  1  0
  3 42  1  0
  5 43  1  0
  6 44  1  0
  7 45  1  0
  8 46  1  0
 13 47  1  0
 14 48  1  0
 15 49  1  0
 16 50  1  0
 16 51  1  0
 17 52  1  0
 17 53  1  0
 18 54  1  0
 19 55  1  0
 19 56  1  0
 20 57  1  0
 20 58  1  0
 23 59  1  0
 24 60  1  0
 29 61  1  0
 30 62  1  0
 30 63  1  0
 31 64  1  0
 31 65  1  0
 32 66  1  0
 33 67  1  0
 34 68  1  0
 34 69  1  0
 35 70  1  0
 35 71  1  0
M  END
> <Name>
Molecule

> <AbsoluteEnergy>
58.9509

> <Clean Energy>
225.967

> <ConfNumber>
47

> <MOL_NUMBER>
5

> <RelativeEnergy>
10.6487

> <POSE_NUMBER>
93

> <LibDockScore>
99.7667

> <HotSpots>
-6.13,-22.12,49.98,A,41,6
3.07,-24.52,50.38,A,43,16
-4.33,-32.92,55.19,A,75,31

$$$$
Molecule
  SciTegic05072616053D

 71 75  0  0  0  0            999 V2000
   -3.2571  -27.4488   49.1593 C   0  0  0  1  0  0
   -2.6634  -26.1835   49.7958 C   0  0  0  1  0  0
   -1.3697  -26.4371   50.5922 C   0  0  0  1  0  0
   -3.6305  -25.1919   50.4405 C   0  0  0  1  0  0
   -3.4016  -23.8448   50.0592 C   0  0  0  1  0  0
   -4.1887  -22.7920   50.5292 C   0  0  0  1  0  0
   -5.2388  -23.0586   51.4024 C   0  0  0  1  0  0
   -5.4895  -24.3731   51.8077 C   0  0  0  1  0  0
   -4.7059  -25.4747   51.3651 C   0  0  0  1  0  0
   -5.0744  -26.8688   51.9086 C   0  0  0  1  0  0
   -3.8357  -27.7231   52.1972 C   0  0  0  1  0  0
   -3.6938  -28.8050   51.6761 O   0  0  0  1  0  0
   -2.8773  -27.2709   53.0841 N   0  0  0  1  0  0
   -1.5789  -27.9879   53.2678 C   0  0  0  1  0  0
   -1.7935  -29.3523   53.7575 N   0  0  0  1  0  0
   -1.8358  -29.2504   55.2056 C   0  0  0  1  0  0
   -0.8729  -28.1196   55.5271 C   0  0  0  1  0  0
   -0.7358  -27.3538   54.2916 N   0  0  0  1  0  0
   -6.1408  -27.5221   50.9780 C   0  0  0  1  0  0
   -6.6189  -28.9267   51.4041 C   0  0  0  1  0  0
   -7.0386  -28.9962   52.8390 N   0  0  0  1  0  0
   -8.1316  -29.7543   53.2584 C   0  0  0  1  0  0
   -8.3665  -29.9574   54.6385 C   0  0  0  1  0  0
   -9.4574  -30.7238   55.0794 C   0  0  0  1  0  0
  -10.3353  -31.3049   54.1485 C   0  0  0  1  0  0
  -11.5040  -32.1355   54.6209 C   0  0  0  1  0  0
  -11.2049  -33.6253   54.6227 C   0  0  0  1  0  0
  -11.3195  -34.2500   53.5931 O   0  0  0  1  0  0
  -10.8243  -34.2053   55.7598 O   0  0  0  1  0  0
  -12.9188  -31.6853   54.2901 C   0  0  0  1  0  0
  -12.4155  -31.5886   55.7090 C   0  0  0  1  0  0
  -10.1160  -31.1095   52.7743 C   0  0  0  1  0  0
   -9.0285  -30.3376   52.3331 C   0  0  0  1  0  0
   -6.2080  -28.2341   53.8191 C   0  0  0  1  0  0
   -5.8275  -26.8394   53.2848 C   0  0  0  1  0  0
   -3.4537  -28.1597   49.9618 H   0  0
   -2.4986  -27.8733   48.5015 H   0  0
   -4.1696  -27.2263   48.6061 H   0  0
   -2.3623  -25.6143   48.9163 H   0  0
   -0.6441  -26.8792   49.9094 H   0  0
   -1.5992  -27.1657   51.3698 H   0  0
   -0.9821  -25.5156   51.0265 H   0  0
   -2.5822  -23.6240   49.3751 H   0  0
   -3.9823  -21.7690   50.2146 H   0  0
   -5.8643  -22.2449   51.7695 H   0  0
   -6.3184  -24.5612   52.4900 H   0  0
   -3.0695  -26.3855   53.6534 H   0  0
   -1.1021  -27.9663   52.2879 H   0  0
   -2.7251  -29.7297   53.3908 H   0  0
   -1.4878  -30.1780   55.6600 H   0  0
   -2.8415  -28.9903   55.5359 H   0  0
    0.0943  -28.5265   55.8221 H   0  0
   -1.2896  -27.4886   56.3121 H   0  0
   -1.0606  -26.3474   54.4545 H   0  0
   -5.7317  -27.5864   49.9697 H   0  0
   -7.0069  -26.8625   50.9244 H   0  0
   -5.8133  -29.6419   51.2377 H   0  0
   -7.4601  -29.2203   50.7762 H   0  0
   -7.6914  -29.5129   55.3698 H   0  0
   -9.6238  -30.8684   56.1469 H   0  0
  -11.5905  -33.9927   56.4456 H   0  0
  -13.5884  -32.5351   54.1576 H   0  0
  -12.9236  -30.7130   53.7975 H   0  0
  -12.1525  -30.5645   55.9738 H   0  0
  -12.8158  -32.3873   56.3335 H   0  0
  -10.7927  -31.5589   52.0475 H   0  0
   -8.8739  -30.1863   51.2648 H   0  0
   -6.7664  -28.1205   54.7483 H   0  0
   -5.2981  -28.7958   54.0305 H   0  0
   -5.1964  -26.3419   54.0212 H   0  0
   -6.7351  -26.2453   53.1782 H   0  0
  1  2  1  0
  2  3  1  0
  2  4  1  0
  4  5  2  0
  4  9  1  0
  5  6  1  0
  6  7  2  0
  7  8  1  0
  8  9  2  0
  9 10  1  0
 10 11  1  0
 10 19  1  0
 10 35  1  0
 11 12  2  0
 11 13  1  0
 13 14  1  0
 14 15  1  0
 14 18  1  0
 15 16  1  0
 16 17  1  0
 17 18  1  0
 19 20  1  0
 20 21  1  0
 21 22  1  0
 21 34  1  0
 22 23  2  0
 22 33  1  0
 23 24  1  0
 24 25  2  0
 25 26  1  0
 25 32  1  0
 26 27  1  0
 26 30  1  0
 26 31  1  0
 27 28  2  0
 27 29  1  0
 30 31  1  0
 32 33  2  0
 34 35  1  0
  1 36  1  0
  1 37  1  0
  1 38  1  0
  2 39  1  0
  3 40  1  0
  3 41  1  0
  3 42  1  0
  5 43  1  0
  6 44  1  0
  7 45  1  0
  8 46  1  0
 13 47  1  0
 14 48  1  0
 15 49  1  0
 16 50  1  0
 16 51  1  0
 17 52  1  0
 17 53  1  0
 18 54  1  0
 19 55  1  0
 19 56  1  0
 20 57  1  0
 20 58  1  0
 23 59  1  0
 24 60  1  0
 29 61  1  0
 30 62  1  0
 30 63  1  0
 31 64  1  0
 31 65  1  0
 32 66  1  0
 33 67  1  0
 34 68  1  0
 34 69  1  0
 35 70  1  0
 35 71  1  0
M  END
> <Name>
Molecule

> <AbsoluteEnergy>
62.1673

> <Clean Energy>
225.967

> <ConfNumber>
74

> <MOL_NUMBER>
5

> <RelativeEnergy>
13.8651

> <POSE_NUMBER>
94

> <LibDockScore>
99.2546

> <HotSpots>
-5.33,-24.12,49.78,A,36,7
-2.13,-28.32,55.19,P,61,15
-12.93,-31.72,54.98,A,73,30

$$$$
Molecule
  SciTegic05072616053D

 71 75  0  0  0  0            999 V2000
   -7.6205  -29.2634   55.1312 C   0  0  0  1  0  0
   -7.2183  -28.5400   53.8335 C   0  0  0  1  0  0
   -8.3253  -27.5192   53.4768 C   0  0  0  1  0  0
   -6.8310  -29.5103   52.7291 C   0  0  0  1  0  0
   -7.8779  -30.2990   52.1867 C   0  0  0  1  0  0
   -7.6624  -31.2072   51.1486 C   0  0  0  1  0  0
   -6.3822  -31.3636   50.6272 C   0  0  0  1  0  0
   -5.3242  -30.6188   51.1552 C   0  0  0  1  0  0
   -5.4915  -29.6795   52.2105 C   0  0  0  1  0  0
   -4.2097  -28.9564   52.7069 C   0  0  0  1  0  0
   -3.7428  -29.5251   54.0533 C   0  0  0  1  0  0
   -3.6524  -28.7977   55.0171 O   0  0  0  1  0  0
   -3.4138  -30.8592   54.1897 N   0  0  0  1  0  0
   -3.8778  -31.6573   55.3580 C   0  0  0  1  0  0
   -5.2872  -31.3916   55.6534 N   0  0  0  1  0  0
   -5.7875  -32.6053   56.2681 C   0  0  0  1  0  0
   -5.0360  -33.7086   55.5504 C   0  0  0  1  0  0
   -3.7639  -33.1145   55.1557 N   0  0  0  1  0  0
   -4.3131  -27.4063   52.8209 C   0  0  0  1  0  0
   -4.6755  -26.7327   51.4850 C   0  0  0  1  0  0
   -3.6347  -27.0234   50.4543 N   0  0  0  1  0  0
   -3.0740  -26.0282   49.6569 C   0  0  0  1  0  0
   -3.3421  -24.6612   49.8997 C   0  0  0  1  0  0
   -2.7805  -23.6628   49.0882 C   0  0  0  1  0  0
   -1.9318  -24.0096   48.0229 C   0  0  0  1  0  0
   -1.3305  -22.9330   47.1513 C   0  0  0  1  0  0
   -2.3564  -21.9178   46.6729 C   0  0  0  1  0  0
   -3.4351  -22.3050   46.2855 O   0  0  0  1  0  0
   -2.0412  -20.6240   46.6921 O   0  0  0  1  0  0
   -0.1810  -23.2825   46.2187 C   0  0  0  1  0  0
    0.0792  -22.4415   47.4435 C   0  0  0  1  0  0
   -1.6508  -25.3644   47.7747 C   0  0  0  1  0  0
   -2.2179  -26.3644   48.5829 C   0  0  0  1  0  0
   -3.2272  -28.4555   50.3331 C   0  0  0  1  0  0
   -2.9979  -29.1002   51.7212 C   0  0  0  1  0  0
   -8.5642  -29.7894   54.9869 H   0  0
   -7.7227  -28.5428   55.9426 H   0  0
   -6.8464  -29.9854   55.3913 H   0  0
   -6.3007  -27.9698   53.9782 H   0  0
   -8.4312  -26.7895   54.2795 H   0  0
   -9.2727  -28.0360   53.3238 H   0  0
   -8.0497  -27.0010   52.5583 H   0  0
   -8.8834  -30.1925   52.5937 H   0  0
   -8.4922  -31.7902   50.7490 H   0  0
   -6.2052  -32.0637   49.8107 H   0  0
   -4.3268  -30.7639   50.7402 H   0  0
   -2.8126  -31.3295   53.4399 H   0  0
   -3.2260  -31.3504   56.1760 H   0  0
   -5.3698  -30.5737   56.3383 H   0  0
   -6.8584  -32.7056   56.0917 H   0  0
   -5.5462  -32.6177   57.3310 H   0  0
   -4.8633  -34.5440   56.2289 H   0  0
   -5.5905  -34.0244   54.6667 H   0  0
   -3.5725  -33.3227   54.1237 H   0  0
   -5.0720  -27.1545   53.5617 H   0  0
   -3.3592  -27.0105   53.1694 H   0  0
   -5.6387  -27.1091   51.1404 H   0  0
   -4.7467  -25.6548   51.6306 H   0  0
   -3.9930  -24.3791   50.7273 H   0  0
   -3.0036  -22.6142   49.2851 H   0  0
   -1.1657  -20.5469   46.1176 H   0  0
   -0.2031  -22.6775   45.3123 H   0  0
    0.1488  -24.3118   46.3596 H   0  0
    0.5485  -23.0218   48.2379 H   0  0
    0.1950  -21.3875   47.1910 H   0  0
   -0.9906  -25.6403   46.9524 H   0  0
   -1.9952  -27.4118   48.3794 H   0  0
   -2.3066  -28.5188   49.7529 H   0  0
   -4.0071  -29.0062   49.8071 H   0  0
   -2.7799  -30.1592   51.5832 H   0  0
   -2.1184  -28.6456   52.1772 H   0  0
  1  2  1  0
  2  3  1  0
  2  4  1  0
  4  5  2  0
  4  9  1  0
  5  6  1  0
  6  7  2  0
  7  8  1  0
  8  9  2  0
  9 10  1  0
 10 11  1  0
 10 19  1  0
 10 35  1  0
 11 12  2  0
 11 13  1  0
 13 14  1  0
 14 15  1  0
 14 18  1  0
 15 16  1  0
 16 17  1  0
 17 18  1  0
 19 20  1  0
 20 21  1  0
 21 22  1  0
 21 34  1  0
 22 23  2  0
 22 33  1  0
 23 24  1  0
 24 25  2  0
 25 26  1  0
 25 32  1  0
 26 27  1  0
 26 30  1  0
 26 31  1  0
 27 28  2  0
 27 29  1  0
 30 31  1  0
 32 33  2  0
 34 35  1  0
  1 36  1  0
  1 37  1  0
  1 38  1  0
  2 39  1  0
  3 40  1  0
  3 41  1  0
  3 42  1  0
  5 43  1  0
  6 44  1  0
  7 45  1  0
  8 46  1  0
 13 47  1  0
 14 48  1  0
 15 49  1  0
 16 50  1  0
 16 51  1  0
 17 52  1  0
 17 53  1  0
 18 54  1  0
 19 55  1  0
 19 56  1  0
 20 57  1  0
 20 58  1  0
 23 59  1  0
 24 60  1  0
 29 61  1  0
 30 62  1  0
 30 63  1  0
 31 64  1  0
 31 65  1  0
 32 66  1  0
 33 67  1  0
 34 68  1  0
 34 69  1  0
 35 70  1  0
 35 71  1  0
M  END
> <Name>
Molecule

> <AbsoluteEnergy>
59.8146

> <Clean Energy>
225.967

> <ConfNumber>
56

> <MOL_NUMBER>
5

> <RelativeEnergy>
11.5125

> <POSE_NUMBER>
95

> <LibDockScore>
98.6866

> <HotSpots>
-7.13,-31.92,50.98,A,49,7
-3.33,-33.72,54.98,P,58,18
-0.93,-23.32,46.98,A,25,30

$$$$
Molecule
  SciTegic05072616053D

 71 75  0  0  0  0            999 V2000
   -2.2804  -28.3883   48.5468 C   0  0  0  1  0  0
   -1.8363  -26.9283   48.3735 C   0  0  0  1  0  0
   -0.4989  -26.5990   49.0626 C   0  0  0  1  0  0
   -2.9052  -25.8416   48.4850 C   0  0  0  1  0  0
   -2.9241  -24.9483   47.3828 C   0  0  0  1  0  0
   -3.8344  -23.8945   47.2905 C   0  0  0  1  0  0
   -4.7602  -23.6979   48.3103 C   0  0  0  1  0  0
   -4.7671  -24.5520   49.4169 C   0  0  0  1  0  0
   -3.8559  -25.6357   49.5563 C   0  0  0  1  0  0
   -3.9674  -26.4921   50.8332 C   0  0  0  1  0  0
   -2.6544  -26.5281   51.6207 C   0  0  0  1  0  0
   -2.2869  -27.5435   52.1650 O   0  0  0  1  0  0
   -1.8898  -25.3833   51.7369 N   0  0  0  1  0  0
   -0.5797  -25.3923   52.4294 C   0  0  0  1  0  0
    0.4927  -25.0166   51.5125 N   0  0  0  1  0  0
    1.4931  -24.3739   52.3424 C   0  0  0  1  0  0
    0.6865  -23.6709   53.4192 C   0  0  0  1  0  0
   -0.5745  -24.3995   53.5068 N   0  0  0  1  0  0
   -5.0108  -25.9517   51.8772 C   0  0  0  1  0  0
   -5.1382  -26.8325   53.1343 C   0  0  0  1  0  0
   -5.5345  -28.2257   52.7740 N   0  0  0  1  0  0
   -6.5510  -28.9113   53.4372 C   0  0  0  1  0  0
   -6.5370  -30.3240   53.4981 C   0  0  0  1  0  0
   -7.5545  -31.0262   54.1643 C   0  0  0  1  0  0
   -8.6044  -30.3290   54.7870 C   0  0  0  1  0  0
   -9.6970  -31.0836   55.5061 C   0  0  0  1  0  0
  -10.8256  -31.5092   54.5822 C   0  0  0  1  0  0
  -10.8491  -32.6444   54.1652 O   0  0  0  1  0  0
  -11.7610  -30.6196   54.2557 O   0  0  0  1  0  0
  -10.0497  -30.7016   56.9357 C   0  0  0  1  0  0
   -9.3304  -31.9996   56.6644 C   0  0  0  1  0  0
   -8.6316  -28.9250   54.7325 C   0  0  0  1  0  0
   -7.6175  -28.2227   54.0608 C   0  0  0  1  0  0
   -4.7663  -28.8545   51.6585 C   0  0  0  1  0  0
   -4.5562  -27.8897   50.4695 C   0  0  0  1  0  0
   -2.3611  -28.5828   49.6163 H   0  0
   -1.4924  -29.0222   48.1403 H   0  0
   -3.2291  -28.5789   48.0451 H   0  0
   -1.6333  -26.8848   47.3035 H   0  0
    0.2579  -27.2643   48.6470 H   0  0
   -0.6109  -26.8249   50.1230 H   0  0
   -0.2209  -25.5554   48.9155 H   0  0
   -2.2015  -25.0902   46.5791 H   0  0
   -3.8202  -23.2306   46.4261 H   0  0
   -5.4781  -22.8802   48.2466 H   0  0
   -5.5004  -24.3808   50.2050 H   0  0
   -2.2522  -24.4684   51.3169 H   0  0
   -0.4233  -26.3999   52.8147 H   0  0
    0.9047  -25.8903   51.0523 H   0  0
    2.0550  -23.6438   51.7599 H   0  0
    2.1462  -25.1215   52.7926 H   0  0
    1.2136  -23.7229   54.3719 H   0  0
    0.4996  -22.6369   53.1294 H   0  0
   -1.3929  -23.7222   53.3789 H   0  0
   -4.7188  -24.9463   52.1804 H   0  0
   -5.9871  -25.8803   51.3977 H   0  0
   -4.1815  -26.8554   53.6561 H   0  0
   -5.8900  -26.4065   53.7986 H   0  0
   -5.7260  -30.8750   53.0218 H   0  0
   -7.5301  -32.1154   54.1987 H   0  0
  -11.2372  -29.8133   53.8338 H   0  0
  -11.1074  -30.8634   57.1437 H   0  0
   -9.3734  -29.9401   57.3240 H   0  0
   -8.2703  -31.9310   56.9085 H   0  0
  -10.0043  -32.8540   56.7265 H   0  0
   -9.4430  -28.3788   55.2135 H   0  0
   -7.6528  -27.1341   54.0196 H   0  0
   -5.3027  -29.7369   51.3096 H   0  0
   -3.7939  -29.1745   52.0329 H   0  0
   -3.8951  -28.3691   49.7475 H   0  0
   -5.5133  -27.7439   49.9686 H   0  0
  1  2  1  0
  2  3  1  0
  2  4  1  0
  4  5  2  0
  4  9  1  0
  5  6  1  0
  6  7  2  0
  7  8  1  0
  8  9  2  0
  9 10  1  0
 10 11  1  0
 10 19  1  0
 10 35  1  0
 11 12  2  0
 11 13  1  0
 13 14  1  0
 14 15  1  0
 14 18  1  0
 15 16  1  0
 16 17  1  0
 17 18  1  0
 19 20  1  0
 20 21  1  0
 21 22  1  0
 21 34  1  0
 22 23  2  0
 22 33  1  0
 23 24  1  0
 24 25  2  0
 25 26  1  0
 25 32  1  0
 26 27  1  0
 26 30  1  0
 26 31  1  0
 27 28  2  0
 27 29  1  0
 30 31  1  0
 32 33  2  0
 34 35  1  0
  1 36  1  0
  1 37  1  0
  1 38  1  0
  2 39  1  0
  3 40  1  0
  3 41  1  0
  3 42  1  0
  5 43  1  0
  6 44  1  0
  7 45  1  0
  8 46  1  0
 13 47  1  0
 14 48  1  0
 15 49  1  0
 16 50  1  0
 16 51  1  0
 17 52  1  0
 17 53  1  0
 18 54  1  0
 19 55  1  0
 19 56  1  0
 20 57  1  0
 20 58  1  0
 23 59  1  0
 24 60  1  0
 29 61  1  0
 30 62  1  0
 30 63  1  0
 31 64  1  0
 31 65  1  0
 32 66  1  0
 33 67  1  0
 34 68  1  0
 34 69  1  0
 35 70  1  0
 35 71  1  0
M  END
> <Name>
Molecule

> <AbsoluteEnergy>
60.1432

> <Clean Energy>
225.967

> <ConfNumber>
61

> <MOL_NUMBER>
5

> <RelativeEnergy>
11.8411

> <POSE_NUMBER>
96

> <LibDockScore>
95.6639

> <HotSpots>
-4.93,-23.52,47.59,A,26,7
0.87,-24.32,52.78,A,63,16
-8.73,-28.12,54.38,A,70,32

$$$$
Molecule
  SciTegic05072616053D

 71 75  0  0  0  0            999 V2000
   -1.1254  -24.8064   46.9594 C   0  0  0  1  0  0
   -1.4081  -23.9231   48.1908 C   0  0  0  1  0  0
   -1.9189  -22.5305   47.7803 C   0  0  0  1  0  0
   -0.2135  -23.8264   49.1117 C   0  0  0  1  0  0
    0.9385  -23.1961   48.5884 C   0  0  0  1  0  0
    2.1024  -23.0573   49.3516 C   0  0  0  1  0  0
    2.1342  -23.5470   50.6589 C   0  0  0  1  0  0
    1.0029  -24.1708   51.2001 C   0  0  0  1  0  0
   -0.1951  -24.3265   50.4546 C   0  0  0  1  0  0
   -1.4076  -25.0057   51.1074 C   0  0  0  1  0  0
   -1.7820  -26.3148   50.3980 C   0  0  0  1  0  0
   -2.9337  -26.5205   50.0853 O   0  0  0  1  0  0
   -0.8262  -27.2716   50.1219 N   0  0  0  1  0  0
   -1.0240  -28.3073   49.0703 C   0  0  0  1  0  0
   -1.5222  -27.7855   47.7854 N   0  0  0  1  0  0
   -2.8289  -28.3820   47.5524 C   0  0  0  1  0  0
   -2.8393  -29.6348   48.4054 C   0  0  0  1  0  0
   -1.9887  -29.3092   49.5364 N   0  0  0  1  0  0
   -1.1678  -25.4204   52.6014 C   0  0  0  1  0  0
   -2.3675  -26.1589   53.2395 C   0  0  0  1  0  0
   -3.6665  -25.6014   52.7665 N   0  0  0  1  0  0
   -4.8229  -26.3778   52.7114 C   0  0  0  1  0  0
   -4.7947  -27.7304   53.1243 C   0  0  0  1  0  0
   -5.9450  -28.5318   53.0460 C   0  0  0  1  0  0
   -7.1483  -27.9965   52.5568 C   0  0  0  1  0  0
   -8.3807  -28.8641   52.4601 C   0  0  0  1  0  0
   -9.2390  -28.8109   53.7123 C   0  0  0  1  0  0
   -9.9118  -29.7719   54.0075 O   0  0  0  1  0  0
   -9.2273  -27.7043   54.4533 O   0  0  0  1  0  0
   -8.3102  -30.1727   51.6869 C   0  0  0  1  0  0
   -9.0875  -29.0095   51.1218 C   0  0  0  1  0  0
   -7.1956  -26.6492   52.1592 C   0  0  0  1  0  0
   -6.0440  -25.8477   52.2327 C   0  0  0  1  0  0
   -3.5987  -24.1819   52.3212 C   0  0  0  1  0  0
   -2.6209  -24.0048   51.1342 C   0  0  0  1  0  0
   -0.3772  -24.3114   46.3403 H   0  0
   -2.0469  -24.9102   46.3866 H   0  0
   -0.7651  -25.7872   47.2698 H   0  0
   -2.2019  -24.4126   48.7550 H   0  0
   -2.8341  -22.6523   47.2009 H   0  0
   -1.1644  -22.0535   47.1547 H   0  0
   -2.1129  -21.9213   48.6631 H   0  0
    0.9194  -22.8103   47.5691 H   0  0
    2.9802  -22.5693   48.9280 H   0  0
    3.0390  -23.4439   51.2579 H   0  0
    1.0435  -24.5472   52.2222 H   0  0
    0.0859  -27.2691   50.6813 H   0  0
   -0.0337  -28.7280   48.8959 H   0  0
   -1.6152  -26.7209   47.8389 H   0  0
   -2.9398  -28.6463   46.5008 H   0  0
   -3.6156  -27.7020   47.8791 H   0  0
   -3.8527  -29.8468   48.7464 H   0  0
   -2.4185  -30.4716   47.8479 H   0  0
   -1.4710  -30.1861   49.8648 H   0  0
   -0.2904  -26.0651   52.6524 H   0  0
   -0.9535  -24.5264   53.1869 H   0  0
   -2.3123  -26.0647   54.3240 H   0  0
   -2.3169  -27.2164   52.9801 H   0  0
   -3.8677  -28.1562   53.5083 H   0  0
   -5.9042  -29.5730   53.3659 H   0  0
   -9.5020  -26.9316   53.7975 H   0  0
   -8.9698  -30.9269   52.1162 H   0  0
   -7.3469  -30.2921   51.1910 H   0  0
   -8.5395  -28.5093   50.3233 H   0  0
  -10.1617  -29.1431   51.2497 H   0  0
   -8.1299  -26.2243   51.7922 H   0  0
   -6.0920  -24.8054   51.9172 H   0  0
   -4.5930  -23.8542   52.0178 H   0  0
   -3.2676  -23.5603   53.1531 H   0  0
   -2.2323  -22.9866   51.1539 H   0  0
   -3.1811  -24.1098   50.2051 H   0  0
  1  2  1  0
  2  3  1  0
  2  4  1  0
  4  5  2  0
  4  9  1  0
  5  6  1  0
  6  7  2  0
  7  8  1  0
  8  9  2  0
  9 10  1  0
 10 11  1  0
 10 19  1  0
 10 35  1  0
 11 12  2  0
 11 13  1  0
 13 14  1  0
 14 15  1  0
 14 18  1  0
 15 16  1  0
 16 17  1  0
 17 18  1  0
 19 20  1  0
 20 21  1  0
 21 22  1  0
 21 34  1  0
 22 23  2  0
 22 33  1  0
 23 24  1  0
 24 25  2  0
 25 26  1  0
 25 32  1  0
 26 27  1  0
 26 30  1  0
 26 31  1  0
 27 28  2  0
 27 29  1  0
 30 31  1  0
 32 33  2  0
 34 35  1  0
  1 36  1  0
  1 37  1  0
  1 38  1  0
  2 39  1  0
  3 40  1  0
  3 41  1  0
  3 42  1  0
  5 43  1  0
  6 44  1  0
  7 45  1  0
  8 46  1  0
 13 47  1  0
 14 48  1  0
 15 49  1  0
 16 50  1  0
 16 51  1  0
 17 52  1  0
 17 53  1  0
 18 54  1  0
 19 55  1  0
 19 56  1  0
 20 57  1  0
 20 58  1  0
 23 59  1  0
 24 60  1  0
 29 61  1  0
 30 62  1  0
 30 63  1  0
 31 64  1  0
 31 65  1  0
 32 66  1  0
 33 67  1  0
 34 68  1  0
 34 69  1  0
 35 70  1  0
 35 71  1  0
M  END
> <Name>
Molecule

> <AbsoluteEnergy>
51.3439

> <Clean Energy>
225.967

> <ConfNumber>
13

> <MOL_NUMBER>
5

> <RelativeEnergy>
3.04175

> <POSE_NUMBER>
97

> <LibDockScore>
94.5096

> <HotSpots>
1.67,-24.32,50.98,A,50,7
-1.93,-29.12,49.19,A,34,14
-9.33,-29.92,51.19,A,52,31

$$$$
Molecule
  SciTegic05072616053D

 71 75  0  0  0  0            999 V2000
   -6.0242  -31.5318   55.0490 C   0  0  0  1  0  0
   -5.0874  -31.0239   53.9346 C   0  0  0  1  0  0
   -4.4713  -32.1919   53.1426 C   0  0  0  1  0  0
   -4.0252  -30.0851   54.4646 C   0  0  0  1  0  0
   -3.1422  -30.6125   55.4339 C   0  0  0  1  0  0
   -2.1304  -29.8295   55.9991 C   0  0  0  1  0  0
   -1.9819  -28.4996   55.6002 C   0  0  0  1  0  0
   -2.8418  -27.9570   54.6358 C   0  0  0  1  0  0
   -3.8781  -28.7225   54.0394 C   0  0  0  1  0  0
   -4.7960  -28.0922   52.9748 C   0  0  0  1  0  0
   -6.2486  -28.5524   53.1998 C   0  0  0  1  0  0
   -6.6603  -28.7470   54.3227 O   0  0  0  1  0  0
   -7.1024  -28.7636   52.1369 N   0  0  0  1  0  0
   -8.4965  -29.2431   52.3524 C   0  0  0  1  0  0
   -9.2874  -29.0551   51.1301 N   0  0  0  1  0  0
  -10.0327  -30.2829   50.9073 C   0  0  0  1  0  0
   -9.1815  -31.3537   51.5568 C   0  0  0  1  0  0
   -8.5598  -30.6777   52.6829 N   0  0  0  1  0  0
   -4.8787  -26.5298   53.0539 C   0  0  0  1  0  0
   -3.6962  -25.7968   52.3847 C   0  0  0  1  0  0
   -3.6509  -26.0752   50.9200 N   0  0  0  1  0  0
   -3.0484  -25.1907   50.0183 C   0  0  0  1  0  0
   -2.3774  -24.0306   50.4751 C   0  0  0  1  0  0
   -1.7797  -23.1363   49.5700 C   0  0  0  1  0  0
   -1.8368  -23.3824   48.1873 C   0  0  0  1  0  0
   -1.1969  -22.4207   47.2124 C   0  0  0  1  0  0
    0.2927  -22.6630   47.0318 C   0  0  0  1  0  0
    1.0800  -21.9182   47.5692 O   0  0  0  1  0  0
    0.6931  -23.6903   46.2845 O   0  0  0  1  0  0
   -1.7051  -20.9889   47.1299 C   0  0  0  1  0  0
   -1.9921  -21.9506   46.0035 C   0  0  0  1  0  0
   -2.4933  -24.5332   47.7183 C   0  0  0  1  0  0
   -3.0942  -25.4256   48.6230 C   0  0  0  1  0  0
   -4.3023  -27.3459   50.4779 C   0  0  0  1  0  0
   -4.2244  -28.4561   51.5533 C   0  0  0  1  0  0
   -5.4509  -32.1676   55.7237 H   0  0
   -6.8188  -32.1231   54.5940 H   0  0
   -6.4505  -30.6923   55.5982 H   0  0
   -5.6995  -30.4450   53.2430 H   0  0
   -5.2777  -32.7782   52.7021 H   0  0
   -3.9098  -32.8227   53.8317 H   0  0
   -3.8129  -31.8144   52.3602 H   0  0
   -3.2519  -31.6507   55.7474 H   0  0
   -1.4614  -30.2552   56.7470 H   0  0
   -1.1971  -27.8834   56.0390 H   0  0
   -2.7113  -26.9175   54.3350 H   0  0
   -6.7575  -28.5799   51.1408 H   0  0
   -8.8889  -28.6625   53.1873 H   0  0
   -9.9663  -28.2383   51.2601 H   0  0
  -10.1286  -30.4782   49.8392 H   0  0
  -11.0043  -30.2284   51.3983 H   0  0
   -9.8114  -32.1704   51.9094 H   0  0
   -8.4193  -31.7018   50.8597 H   0  0
   -7.5711  -31.0586   52.8322 H   0  0
   -4.9268  -26.2322   54.1014 H   0  0
   -5.8052  -26.2028   52.5820 H   0  0
   -2.7628  -26.1266   52.8410 H   0  0
   -3.8028  -24.7235   52.5423 H   0  0
   -2.3235  -23.8279   51.5447 H   0  0
   -1.2696  -22.2479   49.9422 H   0  0
    0.2380  -23.5429   45.3498 H   0  0
   -0.9051  -20.2947   46.8725 H   0  0
   -2.5793  -20.8383   47.7633 H   0  0
   -3.0198  -22.3126   46.0353 H   0  0
   -1.3448  -21.7702   45.1453 H   0  0
   -2.5367  -24.7347   46.6480 H   0  0
   -3.6032  -26.3120   48.2444 H   0  0
   -3.8158  -27.6977   49.5681 H   0  0
   -5.3489  -27.1470   50.2474 H   0  0
   -4.7541  -29.3329   51.1808 H   0  0
   -3.1817  -28.7532   51.6658 H   0  0
  1  2  1  0
  2  3  1  0
  2  4  1  0
  4  5  2  0
  4  9  1  0
  5  6  1  0
  6  7  2  0
  7  8  1  0
  8  9  2  0
  9 10  1  0
 10 11  1  0
 10 19  1  0
 10 35  1  0
 11 12  2  0
 11 13  1  0
 13 14  1  0
 14 15  1  0
 14 18  1  0
 15 16  1  0
 16 17  1  0
 17 18  1  0
 19 20  1  0
 20 21  1  0
 21 22  1  0
 21 34  1  0
 22 23  2  0
 22 33  1  0
 23 24  1  0
 24 25  2  0
 25 26  1  0
 25 32  1  0
 26 27  1  0
 26 30  1  0
 26 31  1  0
 27 28  2  0
 27 29  1  0
 30 31  1  0
 32 33  2  0
 34 35  1  0
  1 36  1  0
  1 37  1  0
  1 38  1  0
  2 39  1  0
  3 40  1  0
  3 41  1  0
  3 42  1  0
  5 43  1  0
  6 44  1  0
  7 45  1  0
  8 46  1  0
 13 47  1  0
 14 48  1  0
 15 49  1  0
 16 50  1  0
 16 51  1  0
 17 52  1  0
 17 53  1  0
 18 54  1  0
 19 55  1  0
 19 56  1  0
 20 57  1  0
 20 58  1  0
 23 59  1  0
 24 60  1  0
 29 61  1  0
 30 62  1  0
 30 63  1  0
 31 64  1  0
 31 65  1  0
 32 66  1  0
 33 67  1  0
 34 68  1  0
 34 69  1  0
 35 70  1  0
 35 71  1  0
M  END
> <Name>
Molecule

> <AbsoluteEnergy>
52.4003

> <Clean Energy>
225.967

> <ConfNumber>
21

> <MOL_NUMBER>
5

> <RelativeEnergy>
4.09816

> <POSE_NUMBER>
98

> <LibDockScore>
90.1126

> <HotSpots>
-1.53,-28.72,56.38,A,78,6
-9.33,-29.92,51.19,A,52,16
-2.53,-21.12,45.98,A,16,31

$$$$
Molecule
  SciTegic05072616053D

 71 75  0  0  0  0            999 V2000
   -3.8352  -25.2803   47.8074 C   0  0  0  1  0  0
   -4.2519  -25.2742   49.2904 C   0  0  0  1  0  0
   -5.7796  -25.4358   49.4388 C   0  0  0  1  0  0
   -3.7199  -24.0629   50.0218 C   0  0  0  1  0  0
   -4.1898  -22.8204   49.5329 C   0  0  0  1  0  0
   -3.8587  -21.6124   50.1518 C   0  0  0  1  0  0
   -3.0461  -21.6201   51.2842 C   0  0  0  1  0  0
   -2.5430  -22.8323   51.7693 C   0  0  0  1  0  0
   -2.8134  -24.0798   51.1422 C   0  0  0  1  0  0
   -2.0988  -25.3039   51.7647 C   0  0  0  1  0  0
   -0.5944  -25.0090   51.9362 C   0  0  0  1  0  0
   -0.0286  -25.2627   52.9769 O   0  0  0  1  0  0
    0.1216  -24.4467   50.8977 N   0  0  0  1  0  0
    1.5500  -24.0736   51.0615 C   0  0  0  1  0  0
    1.8869  -22.8974   50.2572 N   0  0  0  1  0  0
    3.2540  -23.0822   49.7853 C   0  0  0  1  0  0
    3.6946  -24.4370   50.3171 C   0  0  0  1  0  0
    2.4615  -25.1382   50.6313 N   0  0  0  1  0  0
   -2.7093  -25.5540   53.1714 C   0  0  0  1  0  0
   -4.1243  -26.1432   53.1132 C   0  0  0  1  0  0
   -4.1606  -27.4401   52.3779 N   0  0  0  1  0  0
   -5.2983  -28.2505   52.4097 C   0  0  0  1  0  0
   -6.5700  -27.7000   52.6990 C   0  0  0  1  0  0
   -7.7180  -28.5086   52.7259 C   0  0  0  1  0  0
   -7.6200  -29.8854   52.4635 C   0  0  0  1  0  0
   -8.8543  -30.7547   52.4894 C   0  0  0  1  0  0
   -9.6129  -30.6625   53.8049 C   0  0  0  1  0  0
  -10.4878  -29.8363   53.9214 O   0  0  0  1  0  0
   -9.3027  -31.4887   54.8024 O   0  0  0  1  0  0
   -8.8357  -32.0934   51.7668 C   0  0  0  1  0  0
   -9.6532  -30.9541   51.2098 C   0  0  0  1  0  0
   -6.3641  -30.4485   52.1804 C   0  0  0  1  0  0
   -5.2152  -29.6408   52.1571 C   0  0  0  1  0  0
   -2.9307  -27.8314   51.6148 C   0  0  0  1  0  0
   -2.1448  -26.6572   50.9676 C   0  0  0  1  0  0
   -4.3397  -24.4596   47.2975 H   0  0
   -4.1471  -26.2235   47.3588 H   0  0
   -2.7549  -25.1655   47.7189 H   0  0
   -3.7929  -26.1395   49.7686 H   0  0
   -6.0793  -26.3780   48.9800 H   0  0
   -6.2719  -24.6141   48.9186 H   0  0
   -6.0587  -25.4296   50.4924 H   0  0
   -4.8276  -22.8057   48.6491 H   0  0
   -4.2334  -20.6702   49.7518 H   0  0
   -2.8035  -20.6855   51.7899 H   0  0
   -1.9192  -22.8200   52.6631 H   0  0
   -0.3613  -24.2767   49.9581 H   0  0
    1.6728  -23.8790   52.1269 H   0  0
    1.8282  -22.0155   50.8602 H   0  0
    3.8973  -22.2993   50.1870 H   0  0
    3.2750  -23.0869   48.6955 H   0  0
    4.2469  -24.9775   49.5484 H   0  0
    4.2918  -24.3080   51.2198 H   0  0
    2.6240  -25.8305   51.4308 H   0  0
   -2.7412  -24.6115   53.7180 H   0  0
   -2.0637  -26.2384   53.7217 H   0  0
   -4.7873  -25.4344   52.6170 H   0  0
   -4.4881  -26.2996   54.1287 H   0  0
   -6.6595  -26.6332   52.9038 H   0  0
   -8.6885  -28.0664   52.9512 H   0  0
   -8.2771  -31.3365   54.9682 H   0  0
   -9.4620  -32.8291   52.2714 H   0  0
   -7.9092  -32.2339   51.2101 H   0  0
   -9.1631  -30.4872   50.3555 H   0  0
  -10.7155  -31.0814   51.4180 H   0  0
   -6.2811  -31.5163   51.9781 H   0  0
   -4.2461  -30.0909   51.9415 H   0  0
   -3.2169  -28.5320   50.8304 H   0  0
   -2.2620  -28.3684   52.2875 H   0  0
   -1.1212  -26.9876   50.7909 H   0  0
   -2.5712  -26.4618   49.9837 H   0  0
  1  2  1  0
  2  3  1  0
  2  4  1  0
  4  5  2  0
  4  9  1  0
  5  6  1  0
  6  7  2  0
  7  8  1  0
  8  9  2  0
  9 10  1  0
 10 11  1  0
 10 19  1  0
 10 35  1  0
 11 12  2  0
 11 13  1  0
 13 14  1  0
 14 15  1  0
 14 18  1  0
 15 16  1  0
 16 17  1  0
 17 18  1  0
 19 20  1  0
 20 21  1  0
 21 22  1  0
 21 34  1  0
 22 23  2  0
 22 33  1  0
 23 24  1  0
 24 25  2  0
 25 26  1  0
 25 32  1  0
 26 27  1  0
 26 30  1  0
 26 31  1  0
 27 28  2  0
 27 29  1  0
 30 31  1  0
 32 33  2  0
 34 35  1  0
  1 36  1  0
  1 37  1  0
  1 38  1  0
  2 39  1  0
  3 40  1  0
  3 41  1  0
  3 42  1  0
  5 43  1  0
  6 44  1  0
  7 45  1  0
  8 46  1  0
 13 47  1  0
 14 48  1  0
 15 49  1  0
 16 50  1  0
 16 51  1  0
 17 52  1  0
 17 53  1  0
 18 54  1  0
 19 55  1  0
 19 56  1  0
 20 57  1  0
 20 58  1  0
 23 59  1  0
 24 60  1  0
 29 61  1  0
 30 62  1  0
 30 63  1  0
 31 64  1  0
 31 65  1  0
 32 66  1  0
 33 67  1  0
 34 68  1  0
 34 69  1  0
 35 70  1  0
 35 71  1  0
M  END
> <Name>
Molecule

> <AbsoluteEnergy>
59.1159

> <Clean Energy>
225.967

> <ConfNumber>
51

> <MOL_NUMBER>
5

> <RelativeEnergy>
10.8137

> <POSE_NUMBER>
99

> <LibDockScore>
86.7565

> <HotSpots>
-4.93,-23.52,47.59,A,26,5
2.47,-25.32,48.78,P,32,18
-9.53,-30.12,52.78,A,62,31

$$$$
Molecule
  SciTegic05072616053D

 71 75  0  0  0  0            999 V2000
   -2.8585  -26.8921   47.7220 C   0  0  0  1  0  0
   -2.7749  -26.8527   49.2599 C   0  0  0  1  0  0
   -1.8738  -25.7007   49.7441 C   0  0  0  1  0  0
   -2.3442  -28.1830   49.8355 C   0  0  0  1  0  0
   -1.1576  -28.7395   49.3067 C   0  0  0  1  0  0
   -0.6507  -29.9548   49.7774 C   0  0  0  1  0  0
   -1.3241  -30.6374   50.7922 C   0  0  0  1  0  0
   -2.5064  -30.1091   51.3259 C   0  0  0  1  0  0
   -3.0577  -28.8849   50.8628 C   0  0  0  1  0  0
   -4.3729  -28.3671   51.4677 C   0  0  0  1  0  0
   -4.4213  -26.8329   51.4447 C   0  0  0  1  0  0
   -5.1779  -26.2560   50.6965 O   0  0  0  1  0  0
   -3.6029  -26.1008   52.2837 N   0  0  0  1  0  0
   -3.7408  -24.6324   52.4729 C   0  0  0  1  0  0
   -5.1113  -24.2477   52.8249 N   0  0  0  1  0  0
   -5.3789  -22.9831   52.1508 C   0  0  0  1  0  0
   -4.0755  -22.5942   51.4711 C   0  0  0  1  0  0
   -3.3606  -23.8459   51.2943 N   0  0  0  1  0  0
   -4.5675  -28.7727   52.9675 C   0  0  0  1  0  0
   -5.9282  -28.3514   53.5462 C   0  0  0  1  0  0
   -7.0367  -28.9676   52.7665 N   0  0  0  1  0  0
   -8.0510  -29.7194   53.3575 C   0  0  0  1  0  0
   -9.1302  -30.2084   52.5849 C   0  0  0  1  0  0
  -10.1522  -30.9695   53.1764 C   0  0  0  1  0  0
  -10.1181  -31.2517   54.5531 C   0  0  0  1  0  0
  -11.2129  -32.0714   55.1931 C   0  0  0  1  0  0
  -10.9587  -33.5667   55.1001 C   0  0  0  1  0  0
  -10.4292  -34.1329   56.0289 O   0  0  0  1  0  0
  -11.3254  -34.2163   53.9965 O   0  0  0  1  0  0
  -12.6527  -31.5861   55.1231 C   0  0  0  1  0  0
  -11.9093  -31.5361   56.4352 C   0  0  0  1  0  0
   -9.0533  -30.7690   55.3327 C   0  0  0  1  0  0
   -8.0275  -30.0148   54.7403 C   0  0  0  1  0  0
   -6.9773  -28.7214   51.2986 C   0  0  0  1  0  0
   -5.5773  -29.0326   50.7228 C   0  0  0  1  0  0
   -1.8533  -27.0223   47.3212 H   0  0
   -3.2605  -25.9420   47.3700 H   0  0
   -3.4992  -27.7122   47.3979 H   0  0
   -3.7802  -26.6584   49.6337 H   0  0
   -2.2832  -24.7596   49.3769 H   0  0
   -0.8759  -25.8398   49.3281 H   0  0
   -1.8264  -25.6882   50.8330 H   0  0
   -0.6265  -28.2104   48.5155 H   0  0
    0.2653  -30.3670   49.3542 H   0  0
   -0.9299  -31.5812   51.1690 H   0  0
   -3.0182  -30.6533   52.1196 H   0  0
   -2.8342  -26.6145   52.8223 H   0  0
   -3.0527  -24.4092   53.2883 H   0  0
   -5.7974  -24.9938   52.4821 H   0  0
   -5.6581  -22.2224   52.8798 H   0  0
   -6.1612  -23.1168   51.4037 H   0  0
   -4.2811  -22.1400   50.5018 H   0  0
   -3.5040  -21.9241   52.1133 H   0  0
   -2.3049  -23.6714   51.2912 H   0  0
   -3.7760  -28.3177   53.5631 H   0  0
   -4.4668  -29.8544   53.0569 H   0  0
   -6.0190  -27.2660   53.5051 H   0  0
   -5.9949  -28.6751   54.5849 H   0  0
   -9.1694  -29.9920   51.5173 H   0  0
  -10.9744  -31.3425   52.5657 H   0  0
  -10.8359  -33.7200   53.2113 H   0  0
  -13.3546  -32.4194   55.0898 H   0  0
  -12.7203  -30.6012   54.6609 H   0  0
  -11.5808  -30.5244   56.6733 H   0  0
  -12.2139  -32.3432   57.1014 H   0  0
   -9.0234  -30.9808   56.4015 H   0  0
   -7.2028  -29.6525   55.3540 H   0  0
   -7.7162  -29.3493   50.8008 H   0  0
   -7.2212  -27.6777   51.1002 H   0  0
   -5.5556  -28.7196   49.6789 H   0  0
   -5.4347  -30.1132   50.7266 H   0  0
  1  2  1  0
  2  3  1  0
  2  4  1  0
  4  5  2  0
  4  9  1  0
  5  6  1  0
  6  7  2  0
  7  8  1  0
  8  9  2  0
  9 10  1  0
 10 11  1  0
 10 19  1  0
 10 35  1  0
 11 12  2  0
 11 13  1  0
 13 14  1  0
 14 15  1  0
 14 18  1  0
 15 16  1  0
 16 17  1  0
 17 18  1  0
 19 20  1  0
 20 21  1  0
 21 22  1  0
 21 34  1  0
 22 23  2  0
 22 33  1  0
 23 24  1  0
 24 25  2  0
 25 26  1  0
 25 32  1  0
 26 27  1  0
 26 30  1  0
 26 31  1  0
 27 28  2  0
 27 29  1  0
 30 31  1  0
 32 33  2  0
 34 35  1  0
  1 36  1  0
  1 37  1  0
  1 38  1  0
  2 39  1  0
  3 40  1  0
  3 41  1  0
  3 42  1  0
  5 43  1  0
  6 44  1  0
  7 45  1  0
  8 46  1  0
 13 47  1  0
 14 48  1  0
 15 49  1  0
 16 50  1  0
 16 51  1  0
 17 52  1  0
 17 53  1  0
 18 54  1  0
 19 55  1  0
 19 56  1  0
 20 57  1  0
 20 58  1  0
 23 59  1  0
 24 60  1  0
 29 61  1  0
 30 62  1  0
 30 63  1  0
 31 64  1  0
 31 65  1  0
 32 66  1  0
 33 67  1  0
 34 68  1  0
 34 69  1  0
 35 70  1  0
 35 71  1  0
M  END
> <Name>
Molecule

> <AbsoluteEnergy>
49.0862

> <Clean Energy>
225.967

> <ConfNumber>
2

> <MOL_NUMBER>
5

> <RelativeEnergy>
0.7841

> <POSE_NUMBER>
100

> <LibDockScore>
77.8457

> <HotSpots>
-5.13,-23.32,51.38,A,54,16
-9.53,-30.12,52.78,A,62,23
-12.93,-31.72,54.98,A,73,30

$$$$
Molecule
  SciTegic05072616053D

 72 76  0  0  0  0            999 V2000
    2.6640  -25.1302   45.9267 C   0  0  0  1  0  0
    2.0258  -24.7707   47.2295 C   0  0  0  1  0  0
    2.7780  -24.1196   48.2281 C   0  0  0  1  0  0
    2.2323  -23.7869   49.4300 N   0  0  0  1  0  0
    0.9276  -24.0861   49.6871 C   0  0  0  1  0  0
    0.1058  -24.7232   48.7264 C   0  0  0  1  0  0
   -1.2222  -25.0256   48.9773 N   0  0  0  1  0  0
   -2.0061  -24.4793   49.9824 C   0  0  0  1  0  0
   -1.6811  -23.4322   50.5003 O   0  0  0  1  0  0
   -3.2929  -25.1559   50.4814 C   0  0  0  1  0  0
   -4.4978  -24.2234   50.2681 C   0  0  0  1  0  0
   -5.4114  -24.0054   51.3354 C   0  0  0  1  0  0
   -6.4906  -23.1248   51.2203 C   0  0  0  1  0  0
   -6.6921  -22.4214   50.0313 C   0  0  0  1  0  0
   -5.8325  -22.6325   48.9474 C   0  0  0  1  0  0
   -4.7607  -23.5501   49.0279 C   0  0  0  1  0  0
   -3.9548  -23.7560   47.7645 C   0  0  0  1  0  0
   -3.2141  -22.4741   47.3400 C   0  0  0  1  0  0
   -4.7988  -24.3198   46.6043 C   0  0  0  1  0  0
   -3.6238  -26.5724   49.8810 C   0  0  0  1  0  0
   -2.6444  -27.7142   50.2600 C   0  0  0  1  0  0
   -2.4403  -27.7288   51.7284 N   0  0  0  1  0  0
   -2.8480  -28.7620   52.5653 C   0  0  0  1  0  0
   -2.4951  -28.7726   53.9344 C   0  0  0  1  0  0
   -3.0515  -29.7203   54.8083 C   0  0  0  1  0  0
   -3.9517  -30.6822   54.3204 C   0  0  0  1  0  0
   -4.6792  -31.6070   55.2680 C   0  0  0  1  0  0
   -6.0737  -31.0878   55.6341 C   0  0  0  1  0  0
   -6.2515  -29.8961   55.7708 O   0  0  0  1  0  0
   -7.0705  -31.9576   55.7943 O   0  0  0  1  0  0
   -4.4571  -33.1040   55.1227 C   0  0  0  1  0  0
   -3.8994  -32.3772   56.3232 C   0  0  0  1  0  0
   -4.2048  -30.7621   52.9419 C   0  0  0  1  0  0
   -3.6619  -29.8063   52.0706 C   0  0  0  1  0  0
   -1.8844  -26.4558   52.2446 C   0  0  0  1  0  0
   -2.9576  -25.3821   52.0020 C   0  0  0  1  0  0
    0.6733  -25.0707   47.4812 C   0  0  0  1  0  0
    3.5231  -25.7454   46.1943 H   0  0
    3.0526  -24.1903   45.5348 H   0  0
    1.9940  -25.6297   45.2269 H   0  0
    3.8225  -23.8765   48.0331 H   0  0
    0.5057  -23.8279   50.6584 H   0  0
   -1.6858  -25.7467   48.3371 H   0  0
   -5.2656  -24.5419   52.2729 H   0  0
   -7.1743  -22.9873   52.0580 H   0  0
   -7.5149  -21.7113   49.9477 H   0  0
   -5.9928  -22.0782   48.0227 H   0  0
   -3.2053  -24.5097   48.0059 H   0  0
   -2.5506  -22.1746   48.1512 H   0  0
   -3.9511  -21.6875   47.1784 H   0  0
   -2.6412  -22.6466   46.4289 H   0  0
   -5.6132  -23.6223   46.4087 H   0  0
   -5.2232  -25.2708   46.9261 H   0  0
   -4.1903  -24.4564   45.7103 H   0  0
   -3.6547  -26.4910   48.7945 H   0  0
   -4.6265  -26.8581   50.1988 H   0  0
   -1.6878  -27.5532   49.7630 H   0  0
   -3.0609  -28.6701   49.9425 H   0  0
   -1.7848  -28.0385   54.3148 H   0  0
   -2.7850  -29.7097   55.8652 H   0  0
   -6.7317  -32.6261   56.5297 H   0  0
   -3.6810  -33.3243   54.3897 H   0  0
   -5.3552  -33.6677   55.3752 H   0  0
   -4.5004  -32.5539   57.2152 H   0  0
   -2.8266  -32.2090   56.2290 H   0  0
   -4.8241  -31.5680   52.5481 H   0  0
   -3.8695  -29.8695   51.0024 H   0  0
   -1.6849  -26.5439   53.3125 H   0  0
   -0.9755  -26.1989   51.7005 H   0  0
   -2.6162  -24.4405   52.4321 H   0  0
   -3.8685  -25.6714   52.5261 H   0  0
    0.0697  -25.5669   46.7213 H   0  0
  1  2  1  0
  2  3  2  0
  2 37  1  0
  3  4  1  0
  4  5  2  0
  5  6  1  0
  6  7  1  0
  6 37  2  0
  7  8  1  0
  8  9  2  0
  8 10  1  0
 10 11  1  0
 10 20  1  0
 10 36  1  0
 11 12  2  0
 11 16  1  0
 12 13  1  0
 13 14  2  0
 14 15  1  0
 15 16  2  0
 16 17  1  0
 17 18  1  0
 17 19  1  0
 20 21  1  0
 21 22  1  0
 22 23  1  0
 22 35  1  0
 23 24  2  0
 23 34  1  0
 24 25  1  0
 25 26  2  0
 26 27  1  0
 26 33  1  0
 27 28  1  0
 27 31  1  0
 27 32  1  0
 28 29  2  0
 28 30  1  0
 31 32  1  0
 33 34  2  0
 35 36  1  0
  1 38  1  0
  1 39  1  0
  1 40  1  0
  3 41  1  0
  5 42  1  0
  7 43  1  0
 12 44  1  0
 13 45  1  0
 14 46  1  0
 15 47  1  0
 17 48  1  0
 18 49  1  0
 18 50  1  0
 18 51  1  0
 19 52  1  0
 19 53  1  0
 19 54  1  0
 20 55  1  0
 20 56  1  0
 21 57  1  0
 21 58  1  0
 24 59  1  0
 25 60  1  0
 30 61  1  0
 31 62  1  0
 31 63  1  0
 32 64  1  0
 32 65  1  0
 33 66  1  0
 34 67  1  0
 35 68  1  0
 35 69  1  0
 36 70  1  0
 36 71  1  0
 37 72  1  0
M  END
> <Name>
Molecule

> <AbsoluteEnergy>
72.2661

> <Clean Energy>
210.679

> <ConfNumber>
37

> <MOL_NUMBER>
6

> <RelativeEnergy>
10.2603

> <POSE_NUMBER>
1

> <LibDockScore>
139.6913

> <HotSpots>
-6.13,-22.12,49.98,A,41,14
-4.33,-32.92,55.19,A,75,32
0.27,-24.92,46.38,A,19,37

$$$$
Molecule
  SciTegic05072616053D

 72 76  0  0  0  0            999 V2000
    3.4038  -23.6288   49.2622 C   0  0  0  1  0  0
    2.5172  -24.1638   50.3416 C   0  0  0  1  0  0
    3.0582  -24.6136   51.5621 C   0  0  0  1  0  0
    2.2643  -25.1040   52.5529 N   0  0  0  1  0  0
    0.9122  -25.1750   52.3720 C   0  0  0  1  0  0
    0.2857  -24.7358   51.1763 C   0  0  0  1  0  0
   -1.0951  -24.7796   50.9600 N   0  0  0  1  0  0
   -2.1000  -25.1734   51.8462 C   0  0  0  1  0  0
   -1.9270  -25.1073   53.0423 O   0  0  0  1  0  0
   -3.4697  -25.6737   51.3292 C   0  0  0  1  0  0
   -3.6986  -25.1624   49.8956 C   0  0  0  1  0  0
   -3.1358  -25.8611   48.7987 C   0  0  0  1  0  0
   -3.3164  -25.4359   47.4762 C   0  0  0  1  0  0
   -4.0461  -24.2758   47.2080 C   0  0  0  1  0  0
   -4.5976  -23.5469   48.2652 C   0  0  0  1  0  0
   -4.4455  -23.9686   49.6064 C   0  0  0  1  0  0
   -5.0925  -23.0914   50.6551 C   0  0  0  1  0  0
   -6.6022  -22.9183   50.4028 C   0  0  0  1  0  0
   -4.3853  -21.7260   50.7771 C   0  0  0  1  0  0
   -4.6383  -25.2359   52.2712 C   0  0  0  1  0  0
   -5.9972  -25.9241   52.0077 C   0  0  0  1  0  0
   -5.9182  -27.4129   52.1049 N   0  0  0  1  0  0
   -6.8969  -28.1766   52.7720 C   0  0  0  1  0  0
   -6.9138  -29.5934   52.7012 C   0  0  0  1  0  0
   -7.8904  -30.3501   53.3797 C   0  0  0  1  0  0
   -8.8724  -29.7163   54.1613 C   0  0  0  1  0  0
   -9.8845  -30.5393   54.9515 C   0  0  0  1  0  0
  -11.2347  -30.7979   54.2599 C   0  0  0  1  0  0
  -11.3391  -30.6197   53.0681 O   0  0  0  1  0  0
  -12.2976  -31.2227   54.9643 O   0  0  0  1  0  0
   -9.3407  -31.6376   55.8547 C   0  0  0  1  0  0
   -9.8777  -30.3657   56.4645 C   0  0  0  1  0  0
   -8.8927  -28.3111   54.2167 C   0  0  0  1  0  0
   -7.9157  -27.5520   53.5390 C   0  0  0  1  0  0
   -4.7563  -28.0330   51.3944 C   0  0  0  1  0  0
   -3.4227  -27.2329   51.4986 C   0  0  0  1  0  0
    1.1231  -24.2258   50.1523 C   0  0  0  1  0  0
    4.1182  -24.4293   49.0701 H   0  0
    3.9562  -22.8174   49.7360 H   0  0
    2.8758  -23.3106   48.3633 H   0  0
    4.1363  -24.5679   51.7163 H   0  0
    0.2940  -25.5823   53.1721 H   0  0
   -1.4244  -24.4714   49.9897 H   0  0
   -2.5444  -26.7566   48.9898 H   0  0
   -2.8870  -26.0110   46.6558 H   0  0
   -4.1847  -23.9408   46.1801 H   0  0
   -5.1560  -22.6354   48.0518 H   0  0
   -4.9773  -23.6040   51.6101 H   0  0
   -7.0696  -23.9029   50.4120 H   0  0
   -6.7394  -22.4712   49.4182 H   0  0
   -7.0472  -22.2837   51.1692 H   0  0
   -4.4270  -21.2278   49.8085 H   0  0
   -3.3419  -21.8998   51.0401 H   0  0
   -4.8679  -21.1118   51.5374 H   0  0
   -4.7730  -24.1579   52.1821 H   0  0
   -4.3453  -25.4311   53.3028 H   0  0
   -6.3471  -25.6528   51.0117 H   0  0
   -6.7263  -25.5604   52.7318 H   0  0
   -6.1560  -30.1074   52.1099 H   0  0
   -7.8843  -31.4370   53.2977 H   0  0
  -12.4121  -30.5021   55.7194 H   0  0
   -8.2508  -31.6540   55.8526 H   0  0
  -10.0483  -32.4609   55.9524 H   0  0
  -10.8715  -30.5107   56.8880 H   0  0
   -9.0743  -29.7032   56.7866 H   0  0
   -9.6701  -27.8042   54.7883 H   0  0
   -7.9434  -26.4644   53.6054 H   0  0
   -4.5960  -29.0334   51.7965 H   0  0
   -5.0126  -28.1490   50.3413 H   0  0
   -2.7304  -27.6332   50.7579 H   0  0
   -2.9704  -27.4560   52.4649 H   0  0
    0.6864  -23.8805   49.2152 H   0  0
  1  2  1  0
  2  3  2  0
  2 37  1  0
  3  4  1  0
  4  5  2  0
  5  6  1  0
  6  7  1  0
  6 37  2  0
  7  8  1  0
  8  9  2  0
  8 10  1  0
 10 11  1  0
 10 20  1  0
 10 36  1  0
 11 12  2  0
 11 16  1  0
 12 13  1  0
 13 14  2  0
 14 15  1  0
 15 16  2  0
 16 17  1  0
 17 18  1  0
 17 19  1  0
 20 21  1  0
 21 22  1  0
 22 23  1  0
 22 35  1  0
 23 24  2  0
 23 34  1  0
 24 25  1  0
 25 26  2  0
 26 27  1  0
 26 33  1  0
 27 28  1  0
 27 31  1  0
 27 32  1  0
 28 29  2  0
 28 30  1  0
 31 32  1  0
 33 34  2  0
 35 36  1  0
  1 38  1  0
  1 39  1  0
  1 40  1  0
  3 41  1  0
  5 42  1  0
  7 43  1  0
 12 44  1  0
 13 45  1  0
 14 46  1  0
 15 47  1  0
 17 48  1  0
 18 49  1  0
 18 50  1  0
 18 51  1  0
 19 52  1  0
 19 53  1  0
 19 54  1  0
 20 55  1  0
 20 56  1  0
 21 57  1  0
 21 58  1  0
 24 59  1  0
 25 60  1  0
 30 61  1  0
 31 62  1  0
 31 63  1  0
 32 64  1  0
 32 65  1  0
 33 66  1  0
 34 67  1  0
 35 68  1  0
 35 69  1  0
 36 70  1  0
 36 71  1  0
 37 72  1  0
M  END
> <Name>
Molecule

> <AbsoluteEnergy>
67.4184

> <Clean Energy>
210.679

> <ConfNumber>
14

> <MOL_NUMBER>
6

> <RelativeEnergy>
5.41262

> <POSE_NUMBER>
2

> <LibDockScore>
135.6175

> <HotSpots>
3.07,-24.52,50.38,A,43,3
-4.93,-23.52,47.59,A,26,14
-8.73,-28.12,54.38,A,70,33

$$$$
Molecule
  SciTegic05072616053D

 72 76  0  0  0  0            999 V2000
   -6.2886  -21.6037   45.1758 C   0  0  0  1  0  0
   -4.9185  -21.7125   45.7601 C   0  0  0  1  0  0
   -3.8757  -20.8936   45.2817 C   0  0  0  1  0  0
   -2.6170  -20.9691   45.7965 N   0  0  0  1  0  0
   -2.3439  -21.8598   46.7923 C   0  0  0  1  0  0
   -3.3348  -22.7241   47.3166 C   0  0  0  1  0  0
   -2.9932  -23.6178   48.3254 N   0  0  0  1  0  0
   -3.8126  -24.6030   48.8564 C   0  0  0  1  0  0
   -4.9260  -24.7830   48.4105 O   0  0  0  1  0  0
   -3.3341  -25.4836   50.0208 C   0  0  0  1  0  0
   -4.5722  -25.9847   50.7974 C   0  0  0  1  0  0
   -4.7440  -27.3699   51.0550 C   0  0  0  1  0  0
   -5.8161  -27.8578   51.8123 C   0  0  0  1  0  0
   -6.7671  -26.9736   52.3201 C   0  0  0  1  0  0
   -6.6558  -25.6064   52.0514 C   0  0  0  1  0  0
   -5.5903  -25.0947   51.2762 C   0  0  0  1  0  0
   -5.6098  -23.6087   50.9932 C   0  0  0  1  0  0
   -5.3616  -22.7802   52.2675 C   0  0  0  1  0  0
   -6.9083  -23.1727   50.2852 C   0  0  0  1  0  0
   -2.3376  -24.7750   51.0102 C   0  0  0  1  0  0
   -1.8896  -25.6810   52.1863 C   0  0  0  1  0  0
   -1.8325  -27.1129   51.7600 N   0  0  0  1  0  0
   -2.2738  -28.1542   52.5806 C   0  0  0  1  0  0
   -2.6407  -29.4077   52.0353 C   0  0  0  1  0  0
   -3.3393  -30.3453   52.8082 C   0  0  0  1  0  0
   -3.6698  -30.0452   54.1394 C   0  0  0  1  0  0
   -4.6412  -30.9249   54.8837 C   0  0  0  1  0  0
   -6.0631  -30.3736   54.7631 C   0  0  0  1  0  0
   -6.8867  -30.9864   54.1260 O   0  0  0  1  0  0
   -6.3804  -29.2077   55.3368 O   0  0  0  1  0  0
   -4.4155  -32.4271   54.9070 C   0  0  0  1  0  0
   -4.2321  -31.6210   56.1715 C   0  0  0  1  0  0
   -3.1309  -28.9004   54.7480 C   0  0  0  1  0  0
   -2.4255  -27.9652   53.9747 C   0  0  0  1  0  0
   -1.4176  -27.2849   50.3393 C   0  0  0  1  0  0
   -2.4483  -26.6212   49.3802 C   0  0  0  1  0  0
   -4.6462  -22.6290   46.7937 C   0  0  0  1  0  0
   -6.1521  -21.7751   44.1080 H   0  0
   -6.5631  -20.5560   45.2988 H   0  0
   -7.0172  -22.2824   45.6191 H   0  0
   -4.0815  -20.1833   44.4810 H   0  0
   -1.3327  -21.9076   47.1965 H   0  0
   -2.0059  -23.5381   48.7300 H   0  0
   -4.0187  -28.0760   50.6507 H   0  0
   -5.9070  -28.9269   52.0044 H   0  0
   -7.5940  -27.3470   52.9242 H   0  0
   -7.4054  -24.9213   52.4474 H   0  0
   -4.7857  -23.4094   50.3082 H   0  0
   -4.3918  -23.0605   52.6785 H   0  0
   -6.1368  -23.0233   52.9942 H   0  0
   -5.3800  -21.7143   52.0402 H   0  0
   -7.7525  -23.4337   50.9234 H   0  0
   -6.9911  -23.7237   49.3484 H   0  0
   -6.8986  -22.0999   50.0924 H   0  0
   -2.8145  -23.8824   51.4151 H   0  0
   -1.4554  -24.4558   50.4553 H   0  0
   -0.9027  -25.3678   52.5269 H   0  0
   -2.5960  -25.5795   53.0102 H   0  0
   -2.3775  -29.6461   51.0048 H   0  0
   -3.6252  -31.3047   52.3770 H   0  0
   -5.6937  -28.5209   54.9378 H   0  0
   -3.4586  -32.6954   54.4592 H   0  0
   -5.3588  -32.9732   54.9117 H   0  0
   -5.0777  -31.7385   56.8492 H   0  0
   -3.1778  -31.4593   56.3958 H   0  0
   -3.2600  -28.7383   55.8181 H   0  0
   -1.9912  -27.0866   54.4518 H   0  0
   -1.3460  -28.3482   50.1103 H   0  0
   -0.4404  -26.8252   50.1914 H   0  0
   -1.9108  -26.2066   48.5274 H   0  0
   -3.1070  -27.3966   48.9889 H   0  0
   -5.4410  -23.2616   47.1888 H   0  0
  1  2  1  0
  2  3  2  0
  2 37  1  0
  3  4  1  0
  4  5  2  0
  5  6  1  0
  6  7  1  0
  6 37  2  0
  7  8  1  0
  8  9  2  0
  8 10  1  0
 10 11  1  0
 10 20  1  0
 10 36  1  0
 11 12  2  0
 11 16  1  0
 12 13  1  0
 13 14  2  0
 14 15  1  0
 15 16  2  0
 16 17  1  0
 17 18  1  0
 17 19  1  0
 20 21  1  0
 21 22  1  0
 22 23  1  0
 22 35  1  0
 23 24  2  0
 23 34  1  0
 24 25  1  0
 25 26  2  0
 26 27  1  0
 26 33  1  0
 27 28  1  0
 27 31  1  0
 27 32  1  0
 28 29  2  0
 28 30  1  0
 31 32  1  0
 33 34  2  0
 35 36  1  0
  1 38  1  0
  1 39  1  0
  1 40  1  0
  3 41  1  0
  5 42  1  0
  7 43  1  0
 12 44  1  0
 13 45  1  0
 14 46  1  0
 15 47  1  0
 17 48  1  0
 18 49  1  0
 18 50  1  0
 18 51  1  0
 19 52  1  0
 19 53  1  0
 19 54  1  0
 20 55  1  0
 20 56  1  0
 21 57  1  0
 21 58  1  0
 24 59  1  0
 25 60  1  0
 30 61  1  0
 31 62  1  0
 31 63  1  0
 32 64  1  0
 32 65  1  0
 33 66  1  0
 34 67  1  0
 35 68  1  0
 35 69  1  0
 36 70  1  0
 36 71  1  0
 37 72  1  0
M  END
> <Name>
Molecule

> <AbsoluteEnergy>
74.4213

> <Clean Energy>
210.679

> <ConfNumber>
43

> <MOL_NUMBER>
6

> <RelativeEnergy>
12.4155

> <POSE_NUMBER>
3

> <LibDockScore>
135.48

> <HotSpots>
-1.73,-21.72,46.78,A,24,5
-6.53,-23.32,50.38,A,45,19
-4.13,-31.12,56.59,A,79,32

$$$$
Molecule
  SciTegic05072616053D

 72 76  0  0  0  0            999 V2000
   -5.7190  -22.2334   45.2808 C   0  0  0  1  0  0
   -4.3500  -21.9427   45.8081 C   0  0  0  1  0  0
   -3.5734  -20.8930   45.2766 C   0  0  0  1  0  0
   -2.3255  -20.6176   45.7530 N   0  0  0  1  0  0
   -1.8038  -21.3694   46.7635 C   0  0  0  1  0  0
   -2.5207  -22.4446   47.3406 C   0  0  0  1  0  0
   -1.9479  -23.1809   48.3686 N   0  0  0  1  0  0
   -2.1626  -24.5292   48.6213 C   0  0  0  1  0  0
   -2.7910  -25.2090   47.8389 O   0  0  0  1  0  0
   -1.6216  -25.1794   49.9062 C   0  0  0  1  0  0
   -0.1481  -24.8210   50.1488 C   0  0  0  1  0  0
    0.3064  -24.5622   51.4682 C   0  0  0  1  0  0
    1.6382  -24.2211   51.7386 C   0  0  0  1  0  0
    2.5584  -24.1210   50.6927 C   0  0  0  1  0  0
    2.1442  -24.3691   49.3795 C   0  0  0  1  0  0
    0.8084  -24.7261   49.0846 C   0  0  0  1  0  0
    0.4821  -24.9865   47.6293 C   0  0  0  1  0  0
    1.3592  -26.1009   47.0267 C   0  0  0  1  0  0
    0.5617  -23.6976   46.7878 C   0  0  0  1  0  0
   -2.6196  -24.5914   50.9862 C   0  0  0  1  0  0
   -2.8049  -25.4134   52.2740 C   0  0  0  1  0  0
   -3.0910  -26.8080   51.8885 N   0  0  0  1  0  0
   -4.3370  -27.3981   52.0398 C   0  0  0  1  0  0
   -5.4768  -26.5769   52.1847 C   0  0  0  1  0  0
   -6.7536  -27.1427   52.3074 C   0  0  0  1  0  0
   -6.9154  -28.5413   52.2920 C   0  0  0  1  0  0
   -8.3014  -29.1359   52.4172 C   0  0  0  1  0  0
   -8.9624  -28.8293   53.7603 C   0  0  0  1  0  0
   -9.0810  -27.6687   54.0932 O   0  0  0  1  0  0
   -9.3989  -29.8160   54.5433 O   0  0  0  1  0  0
   -9.1968  -29.1119   51.1867 C   0  0  0  1  0  0
   -8.6350  -30.4218   51.6745 C   0  0  0  1  0  0
   -5.7843  -29.3685   52.1629 C   0  0  0  1  0  0
   -4.5010  -28.8027   52.0357 C   0  0  0  1  0  0
   -1.9560  -27.4573   51.2056 C   0  0  0  1  0  0
   -1.7773  -26.7511   49.8477 C   0  0  0  1  0  0
   -3.8201  -22.7190   46.8528 C   0  0  0  1  0  0
   -5.5721  -22.3946   44.2128 H   0  0
   -6.2585  -21.2923   45.3871 H   0  0
   -6.2234  -23.0673   45.7688 H   0  0
   -3.9796  -20.2876   44.4663 H   0  0
   -0.8069  -21.1360   47.1374 H   0  0
   -1.2808  -22.6627   49.0254 H   0  0
   -0.4008  -24.6308   52.2948 H   0  0
    1.9559  -24.0340   52.7644 H   0  0
    3.5942  -23.8509   50.8985 H   0  0
    2.8662  -24.2854   48.5672 H   0  0
   -0.5493  -25.3379   47.5995 H   0  0
    1.2013  -27.0114   47.6048 H   0  0
    2.4035  -25.8025   47.1189 H   0  0
    1.1045  -26.2682   45.9802 H   0  0
    1.5706  -23.2929   46.8686 H   0  0
   -0.1435  -22.9734   47.1957 H   0  0
    0.3236  -23.9075   45.7450 H   0  0
   -2.2797  -23.5934   51.2630 H   0  0
   -3.5962  -24.4609   50.5201 H   0  0
   -1.8909  -25.3771   52.8668 H   0  0
   -3.6404  -25.0133   52.8485 H   0  0
   -5.3627  -25.4930   52.2013 H   0  0
   -7.6251  -26.4969   52.4152 H   0  0
   -8.5560  -30.4251   54.6881 H   0  0
   -8.6621  -28.7455   50.3104 H   0  0
  -10.2460  -28.9969   51.4588 H   0  0
   -9.3839  -31.0082   52.2069 H   0  0
   -7.7992  -30.7559   51.0597 H   0  0
   -5.9020  -30.4521   52.1614 H   0  0
   -3.6302  -29.4503   51.9336 H   0  0
   -2.1751  -28.5129   51.0449 H   0  0
   -1.0510  -27.3419   51.8020 H   0  0
   -0.9005  -27.1699   49.3538 H   0  0
   -2.6336  -26.9922   49.2179 H   0  0
   -4.4075  -23.5289   47.2854 H   0  0
  1  2  1  0
  2  3  2  0
  2 37  1  0
  3  4  1  0
  4  5  2  0
  5  6  1  0
  6  7  1  0
  6 37  2  0
  7  8  1  0
  8  9  2  0
  8 10  1  0
 10 11  1  0
 10 20  1  0
 10 36  1  0
 11 12  2  0
 11 16  1  0
 12 13  1  0
 13 14  2  0
 14 15  1  0
 15 16  2  0
 16 17  1  0
 17 18  1  0
 17 19  1  0
 20 21  1  0
 21 22  1  0
 22 23  1  0
 22 35  1  0
 23 24  2  0
 23 34  1  0
 24 25  1  0
 25 26  2  0
 26 27  1  0
 26 33  1  0
 27 28  1  0
 27 31  1  0
 27 32  1  0
 28 29  2  0
 28 30  1  0
 31 32  1  0
 33 34  2  0
 35 36  1  0
  1 38  1  0
  1 39  1  0
  1 40  1  0
  3 41  1  0
  5 42  1  0
  7 43  1  0
 12 44  1  0
 13 45  1  0
 14 46  1  0
 15 47  1  0
 17 48  1  0
 18 49  1  0
 18 50  1  0
 18 51  1  0
 19 52  1  0
 19 53  1  0
 19 54  1  0
 20 55  1  0
 20 56  1  0
 21 57  1  0
 21 58  1  0
 24 59  1  0
 25 60  1  0
 30 61  1  0
 31 62  1  0
 31 63  1  0
 32 64  1  0
 32 65  1  0
 33 66  1  0
 34 67  1  0
 35 68  1  0
 35 69  1  0
 36 70  1  0
 36 71  1  0
 37 72  1  0
M  END
> <Name>
Molecule

> <AbsoluteEnergy>
67.6524

> <Clean Energy>
210.679

> <ConfNumber>
18

> <MOL_NUMBER>
6

> <RelativeEnergy>
5.64659

> <POSE_NUMBER>
4

> <LibDockScore>
134.3713

> <HotSpots>
-3.53,-20.52,45.19,A,12,3
1.67,-24.32,50.98,A,50,13
-9.33,-29.92,51.19,A,52,32

$$$$
Molecule
  SciTegic05072616053D

 72 76  0  0  0  0            999 V2000
   -5.6728  -22.3249   45.2843 C   0  0  0  1  0  0
   -4.3140  -21.9968   45.8161 C   0  0  0  1  0  0
   -3.5689  -20.9199   45.2941 C   0  0  0  1  0  0
   -2.3307  -20.6104   45.7747 N   0  0  0  1  0  0
   -1.7877  -21.3538   46.7801 C   0  0  0  1  0  0
   -2.4725  -22.4549   47.3477 C   0  0  0  1  0  0
   -1.8790  -23.1815   48.3708 N   0  0  0  1  0  0
   -2.0687  -24.5333   48.6249 C   0  0  0  1  0  0
   -2.6761  -25.2274   47.8385 O   0  0  0  1  0  0
   -1.5266  -25.1694   49.9164 C   0  0  0  1  0  0
   -0.0546  -24.8035   50.1569 C   0  0  0  1  0  0
    0.3982  -24.5329   51.4745 C   0  0  0  1  0  0
    1.7286  -24.1846   51.7429 C   0  0  0  1  0  0
    2.6489  -24.0890   50.6966 C   0  0  0  1  0  0
    2.2363  -24.3488   49.3852 C   0  0  0  1  0  0
    0.9020  -24.7131   49.0925 C   0  0  0  1  0  0
    0.5774  -24.9859   47.6390 C   0  0  0  1  0  0
    1.4419  -26.1186   47.0524 C   0  0  0  1  0  0
    0.6768  -23.7079   46.7832 C   0  0  0  1  0  0
   -2.5276  -24.5748   50.9899 C   0  0  0  1  0  0
   -2.7113  -25.3853   52.2852 C   0  0  0  1  0  0
   -2.9920  -26.7844   51.9126 N   0  0  0  1  0  0
   -4.2361  -27.3775   52.0684 C   0  0  0  1  0  0
   -5.3753  -26.5592   52.2335 C   0  0  0  1  0  0
   -6.6504  -27.1277   52.3613 C   0  0  0  1  0  0
   -6.8111  -28.5262   52.3307 C   0  0  0  1  0  0
   -8.1953  -29.1235   52.4617 C   0  0  0  1  0  0
   -8.8599  -28.8004   53.7990 C   0  0  0  1  0  0
   -9.0225  -27.6353   54.0958 O   0  0  0  1  0  0
   -9.2523  -29.7779   54.6162 O   0  0  0  1  0  0
   -9.0885  -29.1197   51.2292 C   0  0  0  1  0  0
   -8.5233  -30.4207   51.7364 C   0  0  0  1  0  0
   -5.6805  -29.3506   52.1814 C   0  0  0  1  0  0
   -4.3990  -28.7821   52.0492 C   0  0  0  1  0  0
   -1.8541  -27.4361   51.2369 C   0  0  0  1  0  0
   -1.6768  -26.7421   49.8726 C   0  0  0  1  0  0
   -3.7622  -22.7648   46.8556 C   0  0  0  1  0  0
   -5.5196  -22.4732   44.2154 H   0  0
   -6.2408  -21.4014   45.3970 H   0  0
   -6.1523  -23.1776   45.7650 H   0  0
   -3.9922  -20.3208   44.4878 H   0  0
   -0.7989  -21.0931   47.1573 H   0  0
   -1.2155  -22.6521   49.0223 H   0  0
   -0.3092  -24.5979   52.3012 H   0  0
    2.0451  -23.9884   52.7673 H   0  0
    3.6835  -23.8133   50.9007 H   0  0
    2.9583  -24.2687   48.5726 H   0  0
   -0.4584  -25.3241   47.6093 H   0  0
    1.2700  -27.0202   47.6403 H   0  0
    2.4897  -25.8329   47.1451 H   0  0
    1.1887  -26.2945   46.0069 H   0  0
    1.6906  -23.3155   46.8630 H   0  0
   -0.0203  -22.9700   47.1802 H   0  0
    0.4396  -23.9266   45.7420 H   0  0
   -2.1914  -23.5731   51.2576 H   0  0
   -3.5043  -24.4521   50.5217 H   0  0
   -1.7981  -25.3401   52.8786 H   0  0
   -3.5488  -24.9828   52.8550 H   0  0
   -5.2621  -25.4755   52.2618 H   0  0
   -7.5214  -26.4841   52.4849 H   0  0
   -8.3850  -30.3483   54.7742 H   0  0
   -8.5533  -28.7638   50.3489 H   0  0
  -10.1386  -29.0044   51.4978 H   0  0
   -9.2712  -31.0020   52.2756 H   0  0
   -7.6852  -30.7606   51.1280 H   0  0
   -5.7972  -30.4342   52.1680 H   0  0
   -3.5286  -29.4276   51.9315 H   0  0
   -2.0694  -28.4939   51.0860 H   0  0
   -0.9500  -27.3119   51.8330 H   0  0
   -0.7982  -27.1625   49.3833 H   0  0
   -2.5318  -26.9921   49.2445 H   0  0
   -4.3253  -23.5955   47.2808 H   0  0
  1  2  1  0
  2  3  2  0
  2 37  1  0
  3  4  1  0
  4  5  2  0
  5  6  1  0
  6  7  1  0
  6 37  2  0
  7  8  1  0
  8  9  2  0
  8 10  1  0
 10 11  1  0
 10 20  1  0
 10 36  1  0
 11 12  2  0
 11 16  1  0
 12 13  1  0
 13 14  2  0
 14 15  1  0
 15 16  2  0
 16 17  1  0
 17 18  1  0
 17 19  1  0
 20 21  1  0
 21 22  1  0
 22 23  1  0
 22 35  1  0
 23 24  2  0
 23 34  1  0
 24 25  1  0
 25 26  2  0
 26 27  1  0
 26 33  1  0
 27 28  1  0
 27 31  1  0
 27 32  1  0
 28 29  2  0
 28 30  1  0
 31 32  1  0
 33 34  2  0
 35 36  1  0
  1 38  1  0
  1 39  1  0
  1 40  1  0
  3 41  1  0
  5 42  1  0
  7 43  1  0
 12 44  1  0
 13 45  1  0
 14 46  1  0
 15 47  1  0
 17 48  1  0
 18 49  1  0
 18 50  1  0
 18 51  1  0
 19 52  1  0
 19 53  1  0
 19 54  1  0
 20 55  1  0
 20 56  1  0
 21 57  1  0
 21 58  1  0
 24 59  1  0
 25 60  1  0
 30 61  1  0
 31 62  1  0
 31 63  1  0
 32 64  1  0
 32 65  1  0
 33 66  1  0
 34 67  1  0
 35 68  1  0
 35 69  1  0
 36 70  1  0
 36 71  1  0
 37 72  1  0
M  END
> <Name>
Molecule

> <AbsoluteEnergy>
67.6524

> <Clean Energy>
210.679

> <ConfNumber>
18

> <MOL_NUMBER>
6

> <RelativeEnergy>
5.64659

> <POSE_NUMBER>
5

> <LibDockScore>
134.3683

> <HotSpots>
-3.53,-20.52,45.19,A,12,3
2.67,-23.92,48.98,A,32,15
-3.53,-22.32,46.59,A,20,37

$$$$
Molecule
  SciTegic05072616053D

 72 76  0  0  0  0            999 V2000
   -2.8243  -20.1581   45.2593 C   0  0  0  1  0  0
   -3.5556  -21.3473   45.7915 C   0  0  0  1  0  0
   -4.7560  -21.7673   45.1836 C   0  0  0  1  0  0
   -5.4474  -22.8474   45.6407 N   0  0  0  1  0  0
   -4.9787  -23.5417   46.7141 C   0  0  0  1  0  0
   -3.7836  -23.1814   47.3843 C   0  0  0  1  0  0
   -3.3879  -23.9466   48.4735 N   0  0  0  1  0  0
   -2.2846  -23.7767   49.3013 C   0  0  0  1  0  0
   -1.5258  -22.8501   49.1294 O   0  0  0  1  0  0
   -2.0458  -24.7716   50.4567 C   0  0  0  1  0  0
   -0.6217  -24.6267   51.0268 C   0  0  0  1  0  0
   -0.4332  -24.4517   52.4225 C   0  0  0  1  0  0
    0.8402  -24.3684   52.9958 C   0  0  0  1  0  0
    1.9749  -24.4342   52.1849 C   0  0  0  1  0  0
    1.8293  -24.5711   50.8013 C   0  0  0  1  0  0
    0.5519  -24.6592   50.1999 C   0  0  0  1  0  0
    0.5253  -24.7786   48.6901 C   0  0  0  1  0  0
    1.1776  -23.5610   48.0039 C   0  0  0  1  0  0
    1.1759  -26.0894   48.2056 C   0  0  0  1  0  0
   -3.1777  -24.3942   51.4951 C   0  0  0  1  0  0
   -3.4840  -25.4496   52.5727 C   0  0  0  1  0  0
   -3.7035  -26.7568   51.9235 N   0  0  0  1  0  0
   -4.9187  -27.4138   51.9790 C   0  0  0  1  0  0
   -5.0016  -28.8156   51.8466 C   0  0  0  1  0  0
   -6.2418  -29.4646   51.9748 C   0  0  0  1  0  0
   -7.4075  -28.7186   52.2303 C   0  0  0  1  0  0
   -8.7259  -29.4213   52.4776 C   0  0  0  1  0  0
   -9.1897  -29.2881   53.9372 C   0  0  0  1  0  0
   -8.9007  -28.2783   54.5408 O   0  0  0  1  0  0
   -9.8951  -30.2594   54.5254 O   0  0  0  1  0  0
   -9.7836  -29.4062   51.3844 C   0  0  0  1  0  0
   -9.0292  -30.6824   51.6806 C   0  0  0  1  0  0
   -7.3395  -27.3145   52.2852 C   0  0  0  1  0  0
   -6.1011  -26.6682   52.1730 C   0  0  0  1  0  0
   -2.5435  -27.2573   51.1599 C   0  0  0  1  0  0
   -2.2632  -26.2713   50.0117 C   0  0  0  1  0  0
   -3.0626  -22.0650   46.8990 C   0  0  0  1  0  0
   -3.5501  -19.3454   45.2872 H   0  0
   -2.6399  -20.3873   44.2097 H   0  0
   -1.9095  -19.9201   45.8020 H   0  0
   -5.1401  -21.2139   44.3267 H   0  0
   -5.5422  -24.4042   47.0699 H   0  0
   -4.0176  -24.7796   48.7070 H   0  0
   -1.3084  -24.3799   53.0683 H   0  0
    0.9464  -24.2523   54.0744 H   0  0
    2.9691  -24.3791   52.6283 H   0  0
    2.7188  -24.6108   50.1726 H   0  0
   -0.5254  -24.8004   48.4008 H   0  0
    2.2098  -23.4850   48.3458 H   0  0
    0.6383  -22.6641   48.3085 H   0  0
    1.1465  -23.6697   46.9198 H   0  0
    0.6354  -26.9266   48.6473 H   0  0
    2.2081  -26.1119   48.5552 H   0  0
    1.1451  -26.1530   47.1179 H   0  0
   -2.8966  -23.4659   51.9924 H   0  0
   -4.0965  -24.1851   50.9473 H   0  0
   -2.6418  -25.5223   53.2608 H   0  0
   -4.3806  -25.1614   53.1215 H   0  0
   -4.1020  -29.3969   51.6444 H   0  0
   -6.3009  -30.5485   51.8761 H   0  0
   -9.2967  -31.1150   54.4143 H   0  0
   -9.4164  -28.9233   50.4788 H   0  0
  -10.7902  -29.4282   51.8019 H   0  0
   -9.6348  -31.3830   52.2555 H   0  0
   -8.2599  -30.8773   50.9334 H   0  0
   -8.2499  -26.7294   52.4150 H   0  0
   -6.0507  -25.5812   52.2361 H   0  0
   -2.7701  -28.2413   50.7495 H   0  0
   -1.6724  -27.3160   51.8124 H   0  0
   -1.3779  -26.6087   49.4727 H   0  0
   -3.0959  -26.3102   49.3094 H   0  0
   -2.1319  -21.7622   47.3788 H   0  0
  1  2  1  0
  2  3  2  0
  2 37  1  0
  3  4  1  0
  4  5  2  0
  5  6  1  0
  6  7  1  0
  6 37  2  0
  7  8  1  0
  8  9  2  0
  8 10  1  0
 10 11  1  0
 10 20  1  0
 10 36  1  0
 11 12  2  0
 11 16  1  0
 12 13  1  0
 13 14  2  0
 14 15  1  0
 15 16  2  0
 16 17  1  0
 17 18  1  0
 17 19  1  0
 20 21  1  0
 21 22  1  0
 22 23  1  0
 22 35  1  0
 23 24  2  0
 23 34  1  0
 24 25  1  0
 25 26  2  0
 26 27  1  0
 26 33  1  0
 27 28  1  0
 27 31  1  0
 27 32  1  0
 28 29  2  0
 28 30  1  0
 31 32  1  0
 33 34  2  0
 35 36  1  0
  1 38  1  0
  1 39  1  0
  1 40  1  0
  3 41  1  0
  5 42  1  0
  7 43  1  0
 12 44  1  0
 13 45  1  0
 14 46  1  0
 15 47  1  0
 17 48  1  0
 18 49  1  0
 18 50  1  0
 18 51  1  0
 19 52  1  0
 19 53  1  0
 19 54  1  0
 20 55  1  0
 20 56  1  0
 21 57  1  0
 21 58  1  0
 24 59  1  0
 25 60  1  0
 30 61  1  0
 31 62  1  0
 31 63  1  0
 32 64  1  0
 32 65  1  0
 33 66  1  0
 34 67  1  0
 35 68  1  0
 35 69  1  0
 36 70  1  0
 36 71  1  0
 37 72  1  0
M  END
> <Name>
Molecule

> <AbsoluteEnergy>
70.0746

> <Clean Energy>
210.679

> <ConfNumber>
26

> <MOL_NUMBER>
6

> <RelativeEnergy>
8.06874

> <POSE_NUMBER>
6

> <LibDockScore>
133.1856

> <HotSpots>
0.87,-24.32,52.78,A,63,13
1.27,-23.52,47.59,A,27,18
-9.33,-29.92,51.19,A,52,31

$$$$
Molecule
  SciTegic05072616053D

 72 76  0  0  0  0            999 V2000
   -2.3462  -20.5575   45.0722 C   0  0  0  1  0  0
   -3.2664  -21.4961   45.7822 C   0  0  0  1  0  0
   -4.5665  -21.7200   45.2854 C   0  0  0  1  0  0
   -5.4307  -22.5698   45.9055 N   0  0  0  1  0  0
   -5.0408  -23.2194   47.0368 C   0  0  0  1  0  0
   -3.7539  -23.0452   47.6031 C   0  0  0  1  0  0
   -3.4486  -23.7464   48.7622 N   0  0  0  1  0  0
   -2.3252  -23.6398   49.5733 C   0  0  0  1  0  0
   -1.5645  -22.7072   49.4479 O   0  0  0  1  0  0
   -2.0659  -24.7135   50.6511 C   0  0  0  1  0  0
   -0.6251  -24.6210   51.1895 C   0  0  0  1  0  0
   -0.3983  -24.5001   52.5852 C   0  0  0  1  0  0
    0.8905  -24.4659   53.1285 C   0  0  0  1  0  0
    2.0030  -24.5281   52.2873 C   0  0  0  1  0  0
    1.8202  -24.6122   50.9038 C   0  0  0  1  0  0
    0.5267  -24.6502   50.3324 C   0  0  0  1  0  0
    0.4602  -24.7150   48.8205 C   0  0  0  1  0  0
    1.1917  -23.5287   48.1599 C   0  0  0  1  0  0
    0.9962  -26.0548   48.2785 C   0  0  0  1  0  0
   -3.1647  -24.3976   51.7441 C   0  0  0  1  0  0
   -3.4529  -25.5214   52.7554 C   0  0  0  1  0  0
   -3.7046  -26.7791   52.0252 N   0  0  0  1  0  0
   -4.9249  -27.4272   52.0698 C   0  0  0  1  0  0
   -5.0198  -28.8251   51.9071 C   0  0  0  1  0  0
   -6.2650  -29.4666   52.0246 C   0  0  0  1  0  0
   -7.4237  -28.7169   52.2998 C   0  0  0  1  0  0
   -8.7472  -29.4140   52.5356 C   0  0  0  1  0  0
   -9.2261  -29.2737   53.9896 C   0  0  0  1  0  0
   -8.9343  -28.2656   54.5947 O   0  0  0  1  0  0
   -9.9473  -30.2373   54.5715 O   0  0  0  1  0  0
   -9.7930  -29.3993   51.4310 C   0  0  0  1  0  0
   -9.0464  -30.6769   51.7400 C   0  0  0  1  0  0
   -7.3440  -27.3149   52.3851 C   0  0  0  1  0  0
   -6.1006  -26.6764   52.2835 C   0  0  0  1  0  0
   -2.5715  -27.2368   51.1970 C   0  0  0  1  0  0
   -2.3119  -26.1771   50.1112 C   0  0  0  1  0  0
   -2.8553  -22.1697   46.9492 C   0  0  0  1  0  0
   -2.8869  -19.6121   45.0285 H   0  0
   -2.2856  -20.9395   44.0531 H   0  0
   -1.3667  -20.4575   45.5399 H   0  0
   -4.8877  -21.2001   44.3828 H   0  0
   -5.7427  -23.8966   47.5234 H   0  0
   -4.1769  -24.4662   49.0728 H   0  0
   -1.2554  -24.4317   53.2551 H   0  0
    1.0259  -24.3908   54.2074 H   0  0
    3.0088  -24.5112   52.7070 H   0  0
    2.6928  -24.6493   50.2517 H   0  0
   -0.5946  -24.6453   48.5547 H   0  0
    2.2334  -23.5448   48.4803 H   0  0
    0.7306  -22.6037   48.5061 H   0  0
    1.1302  -23.5971   47.0738 H   0  0
    0.4009  -26.8622   48.7048 H   0  0
    2.0303  -26.1694   48.6034 H   0  0
    0.9385  -26.0783   47.1903 H   0  0
   -2.8599  -23.5081   52.2954 H   0  0
   -4.0958  -24.1431   51.2378 H   0  0
   -2.5930  -25.6487   53.4130 H   0  0
   -4.3308  -25.2632   53.3476 H   0  0
   -4.1255  -29.4092   51.6898 H   0  0
   -6.3333  -30.5476   51.9022 H   0  0
   -9.3558  -31.0987   54.4687 H   0  0
   -9.4144  -28.9211   50.5276 H   0  0
  -10.8041  -29.4162   51.8377 H   0  0
   -9.6606  -31.3733   52.3109 H   0  0
   -8.2698  -30.8773   51.0019 H   0  0
   -8.2492  -26.7253   52.5302 H   0  0
   -6.0411  -25.5915   52.3702 H   0  0
   -2.8201  -28.1883   50.7270 H   0  0
   -1.6835  -27.3479   51.8193 H   0  0
   -1.4455  -26.4849   49.5258 H   0  0
   -3.1639  -26.1603   49.4315 H   0  0
   -1.8515  -22.0174   47.3457 H   0  0
  1  2  1  0
  2  3  2  0
  2 37  1  0
  3  4  1  0
  4  5  2  0
  5  6  1  0
  6  7  1  0
  6 37  2  0
  7  8  1  0
  8  9  2  0
  8 10  1  0
 10 11  1  0
 10 20  1  0
 10 36  1  0
 11 12  2  0
 11 16  1  0
 12 13  1  0
 13 14  2  0
 14 15  1  0
 15 16  2  0
 16 17  1  0
 17 18  1  0
 17 19  1  0
 20 21  1  0
 21 22  1  0
 22 23  1  0
 22 35  1  0
 23 24  2  0
 23 34  1  0
 24 25  1  0
 25 26  2  0
 26 27  1  0
 26 33  1  0
 27 28  1  0
 27 31  1  0
 27 32  1  0
 28 29  2  0
 28 30  1  0
 31 32  1  0
 33 34  2  0
 35 36  1  0
  1 38  1  0
  1 39  1  0
  1 40  1  0
  3 41  1  0
  5 42  1  0
  7 43  1  0
 12 44  1  0
 13 45  1  0
 14 46  1  0
 15 47  1  0
 17 48  1  0
 18 49  1  0
 18 50  1  0
 18 51  1  0
 19 52  1  0
 19 53  1  0
 19 54  1  0
 20 55  1  0
 20 56  1  0
 21 57  1  0
 21 58  1  0
 24 59  1  0
 25 60  1  0
 30 61  1  0
 31 62  1  0
 31 63  1  0
 32 64  1  0
 32 65  1  0
 33 66  1  0
 34 67  1  0
 35 68  1  0
 35 69  1  0
 36 70  1  0
 36 71  1  0
 37 72  1  0
M  END
> <Name>
Molecule

> <AbsoluteEnergy>
70.0746

> <Clean Energy>
210.679

> <ConfNumber>
26

> <MOL_NUMBER>
6

> <RelativeEnergy>
8.06874

> <POSE_NUMBER>
7

> <LibDockScore>
131.4327

> <HotSpots>
-4.93,-21.52,45.19,A,11,3
0.87,-24.32,52.78,A,63,13
-6.33,-26.32,51.98,A,57,34

$$$$
Molecule
  SciTegic05072616053D

 72 76  0  0  0  0            999 V2000
    4.0387  -23.6196   49.7867 C   0  0  0  1  0  0
    2.8275  -24.0735   50.5356 C   0  0  0  1  0  0
    2.9591  -24.6075   51.8336 C   0  0  0  1  0  0
    1.8792  -25.0403   52.5404 N   0  0  0  1  0  0
    0.6345  -24.9619   51.9904 C   0  0  0  1  0  0
    0.4230  -24.4215   50.6991 C   0  0  0  1  0  0
   -0.8388  -24.3328   50.1352 N   0  0  0  1  0  0
   -1.9923  -23.9152   50.7816 C   0  0  0  1  0  0
   -2.0502  -22.7998   51.2538 O   0  0  0  1  0  0
   -3.2249  -24.8212   50.9321 C   0  0  0  1  0  0
   -4.4891  -24.0751   50.4717 C   0  0  0  1  0  0
   -5.5403  -23.8409   51.3999 C   0  0  0  1  0  0
   -6.6865  -23.1187   51.0563 C   0  0  0  1  0  0
   -6.8205  -22.5956   49.7688 C   0  0  0  1  0  0
   -5.8215  -22.8317   48.8178 C   0  0  0  1  0  0
   -4.6745  -23.5956   49.1315 C   0  0  0  1  0  0
   -3.7078  -23.8550   47.9973 C   0  0  0  1  0  0
   -3.0134  -22.5631   47.5273 C   0  0  0  1  0  0
   -4.3619  -24.5959   46.8144 C   0  0  0  1  0  0
   -3.1627  -26.2216   50.2169 C   0  0  0  1  0  0
   -2.1170  -27.2218   50.7761 C   0  0  0  1  0  0
   -2.2567  -27.3172   52.2490 N   0  0  0  1  0  0
   -2.6638  -28.4627   52.9244 C   0  0  0  1  0  0
   -2.3929  -28.6311   54.3018 C   0  0  0  1  0  0
   -2.9547  -29.7025   55.0146 C   0  0  0  1  0  0
   -3.7774  -30.6306   54.3548 C   0  0  0  1  0  0
   -4.5153  -31.6953   55.1323 C   0  0  0  1  0  0
   -5.8970  -31.2247   55.5989 C   0  0  0  1  0  0
   -6.0940  -30.0434   55.7890 O   0  0  0  1  0  0
   -6.8618  -32.1246   55.7862 O   0  0  0  1  0  0
   -4.3226  -33.1467   54.7232 C   0  0  0  1  0  0
   -3.7424  -32.6528   56.0270 C   0  0  0  1  0  0
   -3.9441  -30.5466   52.9634 C   0  0  0  1  0  0
   -3.3963  -29.4681   52.2533 C   0  0  0  1  0  0
   -2.0594  -26.0164   52.9310 C   0  0  0  1  0  0
   -3.2148  -25.1084   52.4791 C   0  0  0  1  0  0
    1.5438  -23.9755   49.9654 C   0  0  0  1  0  0
    4.6941  -24.4900   49.7573 H   0  0
    4.5122  -22.8837   50.4366 H   0  0
    3.8245  -23.2240   48.7939 H   0  0
    3.9501  -24.6755   52.2824 H   0  0
   -0.2209  -25.3250   52.5601 H   0  0
   -0.9321  -24.6121   49.1065 H   0  0
   -5.4494  -24.2370   52.4113 H   0  0
   -7.4750  -22.9640   51.7928 H   0  0
   -7.6989  -22.0062   49.5057 H   0  0
   -5.9301  -22.4182   47.8151 H   0  0
   -2.9419  -24.5173   48.4009 H   0  0
   -2.4767  -22.1329   48.3729 H   0  0
   -3.7790  -21.8594   47.2004 H   0  0
   -2.3228  -22.7746   46.7109 H   0  0
   -5.1936  -23.9902   46.4544 H   0  0
   -4.7541  -25.5433   47.1842 H   0  0
   -3.6407  -24.7673   46.0153 H   0  0
   -2.9563  -26.0626   49.1585 H   0  0
   -4.1480  -26.6843   50.2742 H   0  0
   -1.1135  -26.8753   50.5292 H   0  0
   -2.2803  -28.2039   50.3323 H   0  0
   -1.7422  -27.9230   54.8149 H   0  0
   -2.7525  -29.8141   56.0798 H   0  0
   -6.4640  -32.8095   56.4756 H   0  0
   -3.5562  -33.2477   53.9547 H   0  0
   -5.2293  -33.7305   54.8820 H   0  0
   -4.3400  -32.9736   56.8802 H   0  0
   -2.6673  -32.4892   55.9526 H   0  0
   -4.5000  -31.3205   52.4342 H   0  0
   -3.5368  -29.4048   51.1742 H   0  0
   -2.0987  -26.1541   54.0115 H   0  0
   -1.1072  -25.5793   52.6305 H   0  0
   -3.1468  -24.1609   53.0136 H   0  0
   -4.1589  -25.5761   52.7585 H   0  0
    1.4164  -23.5589   48.9662 H   0  0
  1  2  1  0
  2  3  2  0
  2 37  1  0
  3  4  1  0
  4  5  2  0
  5  6  1  0
  6  7  1  0
  6 37  2  0
  7  8  1  0
  8  9  2  0
  8 10  1  0
 10 11  1  0
 10 20  1  0
 10 36  1  0
 11 12  2  0
 11 16  1  0
 12 13  1  0
 13 14  2  0
 14 15  1  0
 15 16  2  0
 16 17  1  0
 17 18  1  0
 17 19  1  0
 20 21  1  0
 21 22  1  0
 22 23  1  0
 22 35  1  0
 23 24  2  0
 23 34  1  0
 24 25  1  0
 25 26  2  0
 26 27  1  0
 26 33  1  0
 27 28  1  0
 27 31  1  0
 27 32  1  0
 28 29  2  0
 28 30  1  0
 31 32  1  0
 33 34  2  0
 35 36  1  0
  1 38  1  0
  1 39  1  0
  1 40  1  0
  3 41  1  0
  5 42  1  0
  7 43  1  0
 12 44  1  0
 13 45  1  0
 14 46  1  0
 15 47  1  0
 17 48  1  0
 18 49  1  0
 18 50  1  0
 18 51  1  0
 19 52  1  0
 19 53  1  0
 19 54  1  0
 20 55  1  0
 20 56  1  0
 21 57  1  0
 21 58  1  0
 24 59  1  0
 25 60  1  0
 30 61  1  0
 31 62  1  0
 31 63  1  0
 32 64  1  0
 32 65  1  0
 33 66  1  0
 34 67  1  0
 35 68  1  0
 35 69  1  0
 36 70  1  0
 36 71  1  0
 37 72  1  0
M  END
> <Name>
Molecule

> <AbsoluteEnergy>
72.2661

> <Clean Energy>
210.679

> <ConfNumber>
37

> <MOL_NUMBER>
6

> <RelativeEnergy>
10.2603

> <POSE_NUMBER>
8

> <LibDockScore>
130.8568

> <HotSpots>
4.07,-23.72,49.78,A,37,3
-5.53,-22.92,48.98,A,33,13
-0.93,-23.32,46.98,A,25,18

$$$$
Molecule
  SciTegic05072616053D

 72 76  0  0  0  0            999 V2000
    3.2418  -24.1157   50.8315 C   0  0  0  1  0  0
    1.8559  -24.2161   51.4029 C   0  0  0  1  0  0
    1.6625  -24.1452   52.7949 C   0  0  0  1  0  0
    0.4202  -24.2261   53.3457 N   0  0  0  1  0  0
   -0.6764  -24.3878   52.5442 C   0  0  0  1  0  0
   -0.5641  -24.4887   51.1378 C   0  0  0  1  0  0
   -1.6690  -24.6709   50.3077 N   0  0  0  1  0  0
   -2.9771  -24.9388   50.7031 C   0  0  0  1  0  0
   -3.2702  -24.9121   51.8739 O   0  0  0  1  0  0
   -4.0541  -25.2936   49.6630 C   0  0  0  1  0  0
   -4.1803  -24.2044   48.5707 C   0  0  0  1  0  0
   -3.6708  -24.4986   47.2747 C   0  0  0  1  0  0
   -3.6946  -23.5774   46.2220 C   0  0  0  1  0  0
   -4.2382  -22.3136   46.4249 C   0  0  0  1  0  0
   -4.7683  -21.9875   47.6757 C   0  0  0  1  0  0
   -4.7684  -22.8967   48.7615 C   0  0  0  1  0  0
   -5.4255  -22.3213   50.0154 C   0  0  0  1  0  0
   -4.5826  -22.0994   51.2804 C   0  0  0  1  0  0
   -6.8257  -22.9184   50.2834 C   0  0  0  1  0  0
   -3.6127  -26.6942   49.1233 C   0  0  0  1  0  0
   -3.5020  -27.8187   50.1746 C   0  0  0  1  0  0
   -4.5331  -27.8152   51.2688 N   0  0  0  1  0  0
   -4.5332  -28.8292   52.2477 C   0  0  0  1  0  0
   -5.6145  -28.9597   53.1610 C   0  0  0  1  0  0
   -5.5697  -29.8951   54.2133 C   0  0  0  1  0  0
   -4.4446  -30.7216   54.3772 C   0  0  0  1  0  0
   -4.3294  -31.6163   55.5956 C   0  0  0  1  0  0
   -3.8307  -30.8839   56.8604 C   0  0  0  1  0  0
   -4.3264  -31.1619   57.9308 O   0  0  0  1  0  0
   -2.8662  -29.9464   56.7864 O   0  0  0  1  0  0
   -3.9267  -33.0750   55.4178 C   0  0  0  1  0  0
   -5.3564  -32.7308   55.7823 C   0  0  0  1  0  0
   -3.4125  -30.6856   53.4177 C   0  0  0  1  0  0
   -3.4532  -29.7444   52.3713 C   0  0  0  1  0  0
   -5.5221  -26.6911   51.3479 C   0  0  0  1  0  0
   -5.4641  -25.6398   50.2223 C   0  0  0  1  0  0
    0.7285  -24.3817   50.5640 C   0  0  0  1  0  0
    3.8061  -24.9113   51.3180 H   0  0
    3.6334  -23.1696   51.2053 H   0  0
    3.2784  -24.1824   49.7442 H   0  0
    2.5272  -24.0227   53.4471 H   0  0
   -1.6642  -24.4404   53.0020 H   0  0
   -1.4934  -24.5971   49.2548 H   0  0
   -3.2433  -25.4849   47.0944 H   0  0
   -3.2890  -23.8490   45.2474 H   0  0
   -4.2506  -21.5839   45.6153 H   0  0
   -5.1978  -20.9963   47.8213 H   0  0
   -5.5481  -21.2797   49.7185 H   0  0
   -3.7638  -21.4538   50.9629 H   0  0
   -4.1497  -23.0744   51.5043 H   0  0
   -5.1407  -21.6859   52.1204 H   0  0
   -6.7182  -23.9979   50.3894 H   0  0
   -7.4523  -22.7136   49.4154 H   0  0
   -7.2670  -22.4886   51.1826 H   0  0
   -2.6468  -26.5877   48.6295 H   0  0
   -4.3198  -27.0082   48.3555 H   0  0
   -2.5149  -27.7673   50.6339 H   0  0
   -3.5513  -28.7784   49.6602 H   0  0
   -6.4932  -28.3252   53.0452 H   0  0
   -6.4100  -29.9782   54.9025 H   0  0
   -3.2369  -29.2527   56.0908 H   0  0
   -3.3706  -33.4445   56.2794 H   0  0
   -3.8331  -33.3380   54.3642 H   0  0
   -6.0205  -32.8102   54.9216 H   0  0
   -5.5575  -32.9150   56.8376 H   0  0
   -2.5815  -31.3876   53.4860 H   0  0
   -2.6423  -29.7173   51.6435 H   0  0
   -6.5249  -27.1177   51.3689 H   0  0
   -5.3874  -26.1812   52.3018 H   0  0
   -5.9249  -24.7216   50.5866 H   0  0
   -6.0872  -25.9860   49.3977 H   0  0
    0.8528  -24.4268   49.4821 H   0  0
  1  2  1  0
  2  3  2  0
  2 37  1  0
  3  4  1  0
  4  5  2  0
  5  6  1  0
  6  7  1  0
  6 37  2  0
  7  8  1  0
  8  9  2  0
  8 10  1  0
 10 11  1  0
 10 20  1  0
 10 36  1  0
 11 12  2  0
 11 16  1  0
 12 13  1  0
 13 14  2  0
 14 15  1  0
 15 16  2  0
 16 17  1  0
 17 18  1  0
 17 19  1  0
 20 21  1  0
 21 22  1  0
 22 23  1  0
 22 35  1  0
 23 24  2  0
 23 34  1  0
 24 25  1  0
 25 26  2  0
 26 27  1  0
 26 33  1  0
 27 28  1  0
 27 31  1  0
 27 32  1  0
 28 29  2  0
 28 30  1  0
 31 32  1  0
 33 34  2  0
 35 36  1  0
  1 38  1  0
  1 39  1  0
  1 40  1  0
  3 41  1  0
  5 42  1  0
  7 43  1  0
 12 44  1  0
 13 45  1  0
 14 46  1  0
 15 47  1  0
 17 48  1  0
 18 49  1  0
 18 50  1  0
 18 51  1  0
 19 52  1  0
 19 53  1  0
 19 54  1  0
 20 55  1  0
 20 56  1  0
 21 57  1  0
 21 58  1  0
 24 59  1  0
 25 60  1  0
 30 61  1  0
 31 62  1  0
 31 63  1  0
 32 64  1  0
 32 65  1  0
 33 66  1  0
 34 67  1  0
 35 68  1  0
 35 69  1  0
 36 70  1  0
 36 71  1  0
 37 72  1  0
M  END
> <Name>
Molecule

> <AbsoluteEnergy>
78.6929

> <Clean Energy>
210.679

> <ConfNumber>
68

> <MOL_NUMBER>
6

> <RelativeEnergy>
16.6871

> <POSE_NUMBER>
9

> <LibDockScore>
129.464

> <HotSpots>
-3.53,-22.32,46.59,A,20,14
-6.13,-22.12,49.98,A,41,19
-4.33,-31.92,57.78,P,73,29

$$$$
Molecule
  SciTegic05072616053D

 72 76  0  0  0  0            999 V2000
   -3.8552  -21.5759   51.1865 C   0  0  0  1  0  0
   -4.8843  -22.6236   50.9058 C   0  0  0  1  0  0
   -6.1005  -22.2700   50.2860 C   0  0  0  1  0  0
   -7.0454  -23.2053   49.9876 N   0  0  0  1  0  0
   -6.8256  -24.5143   50.3061 C   0  0  0  1  0  0
   -5.6465  -24.9391   50.9622 C   0  0  0  1  0  0
   -5.4940  -26.2802   51.2867 N   0  0  0  1  0  0
   -4.7528  -26.7881   52.3450 C   0  0  0  1  0  0
   -4.3283  -26.0425   53.1987 O   0  0  0  1  0  0
   -4.4369  -28.2938   52.4904 C   0  0  0  1  0  0
   -5.6391  -28.9203   53.2163 C   0  0  0  1  0  0
   -6.8626  -28.2411   52.9778 C   0  0  0  1  0  0
   -8.0629  -28.6122   53.5848 C   0  0  0  1  0  0
   -8.0832  -29.6970   54.4594 C   0  0  0  1  0  0
   -6.9042  -30.4063   54.7090 C   0  0  0  1  0  0
   -5.6756  -30.0620   54.0922 C   0  0  0  1  0  0
   -4.4935  -30.9437   54.4343 C   0  0  0  1  0  0
   -4.6539  -32.4236   54.0071 C   0  0  0  1  0  0
   -4.1510  -30.8493   55.9338 C   0  0  0  1  0  0
   -3.0205  -28.2996   53.1640 C   0  0  0  1  0  0
   -1.9644  -27.4950   52.3478 C   0  0  0  1  0  0
   -2.2454  -27.6191   50.8873 N   0  0  0  1  0  0
   -2.1455  -26.5564   49.9934 C   0  0  0  1  0  0
   -1.9296  -25.2332   50.4425 C   0  0  0  1  0  0
   -1.9694  -24.1563   49.5379 C   0  0  0  1  0  0
   -2.2080  -24.3912   48.1739 C   0  0  0  1  0  0
   -2.3606  -23.2527   47.1934 C   0  0  0  1  0  0
   -3.7672  -23.1890   46.5974 C   0  0  0  1  0  0
   -4.3898  -24.2192   46.4364 O   0  0  0  1  0  0
   -4.2850  -22.0047   46.2704 O   0  0  0  1  0  0
   -1.5721  -21.9676   47.4031 C   0  0  0  1  0  0
   -1.1926  -22.9103   46.2854 C   0  0  0  1  0  0
   -2.3372  -25.7068   47.7077 C   0  0  0  1  0  0
   -2.3022  -26.7779   48.6058 C   0  0  0  1  0  0
   -2.7918  -28.9457   50.5235 C   0  0  0  1  0  0
   -4.2028  -29.0927   51.1457 C   0  0  0  1  0  0
   -4.6569  -23.9720   51.2470 C   0  0  0  1  0  0
   -4.3699  -20.8310   51.7935 H   0  0
   -3.6507  -21.1158   50.2198 H   0  0
   -2.9540  -21.9565   51.6672 H   0  0
   -6.2890  -21.2250   50.0401 H   0  0
   -7.5820  -25.2551   50.0469 H   0  0
   -5.9952  -26.9897   50.6619 H   0  0
   -6.8645  -27.3941   52.2917 H   0  0
   -8.9779  -28.0577   53.3765 H   0  0
   -9.0130  -29.9910   54.9463 H   0  0
   -6.9310  -31.2497   55.3990 H   0  0
   -3.6644  -30.5531   53.8443 H   0  0
   -4.8195  -32.4342   52.9298 H   0  0
   -5.5503  -32.8068   54.4947 H   0  0
   -3.7793  -33.0168   54.2743 H   0  0
   -5.0189  -31.1628   56.5139 H   0  0
   -3.9148  -29.8133   56.1768 H   0  0
   -3.2990  -31.4885   56.1655 H   0  0
   -3.0999  -27.8695   54.1624 H   0  0
   -2.6790  -29.3296   53.2671 H   0  0
   -0.9685  -27.8849   52.5584 H   0  0
   -2.0072  -26.4447   52.6361 H   0  0
   -1.7308  -25.0460   51.4977 H   0  0
   -1.8149  -23.1385   49.8961 H   0  0
   -3.5930  -21.5817   45.6035 H   0  0
   -0.8892  -22.0509   48.2486 H   0  0
   -2.1163  -21.0999   47.0301 H   0  0
   -1.5321  -22.5428   45.3170 H   0  0
   -0.3069  -23.4943   46.5354 H   0  0
   -2.4653  -25.8954   46.6418 H   0  0
   -2.3970  -27.7971   48.2312 H   0  0
   -2.8618  -29.0269   49.4388 H   0  0
   -2.1399  -29.7289   50.9105 H   0  0
   -4.3912  -30.1501   51.3313 H   0  0
   -4.9403  -28.7663   50.4125 H   0  0
   -3.7239  -24.2666   51.7273 H   0  0
  1  2  1  0
  2  3  2  0
  2 37  1  0
  3  4  1  0
  4  5  2  0
  5  6  1  0
  6  7  1  0
  6 37  2  0
  7  8  1  0
  8  9  2  0
  8 10  1  0
 10 11  1  0
 10 20  1  0
 10 36  1  0
 11 12  2  0
 11 16  1  0
 12 13  1  0
 13 14  2  0
 14 15  1  0
 15 16  2  0
 16 17  1  0
 17 18  1  0
 17 19  1  0
 20 21  1  0
 21 22  1  0
 22 23  1  0
 22 35  1  0
 23 24  2  0
 23 34  1  0
 24 25  1  0
 25 26  2  0
 26 27  1  0
 26 33  1  0
 27 28  1  0
 27 31  1  0
 27 32  1  0
 28 29  2  0
 28 30  1  0
 31 32  1  0
 33 34  2  0
 35 36  1  0
  1 38  1  0
  1 39  1  0
  1 40  1  0
  3 41  1  0
  5 42  1  0
  7 43  1  0
 12 44  1  0
 13 45  1  0
 14 46  1  0
 15 47  1  0
 17 48  1  0
 18 49  1  0
 18 50  1  0
 18 51  1  0
 19 52  1  0
 19 53  1  0
 19 54  1  0
 20 55  1  0
 20 56  1  0
 21 57  1  0
 21 58  1  0
 24 59  1  0
 25 60  1  0
 30 61  1  0
 31 62  1  0
 31 63  1  0
 32 64  1  0
 32 65  1  0
 33 66  1  0
 34 67  1  0
 35 68  1  0
 35 69  1  0
 36 70  1  0
 36 71  1  0
 37 72  1  0
M  END
> <Name>
Molecule

> <AbsoluteEnergy>
77.995

> <Clean Energy>
210.679

> <ConfNumber>
65

> <MOL_NUMBER>
6

> <RelativeEnergy>
15.9892

> <POSE_NUMBER>
10

> <LibDockScore>
128.1617

> <HotSpots>
-5.33,-24.12,49.78,A,36,5
-7.93,-28.32,52.38,A,59,13
0.27,-22.52,46.78,A,23,31

$$$$
Molecule
  SciTegic05072616053D

 72 76  0  0  0  0            999 V2000
   -5.8163  -22.1198   45.0260 C   0  0  0  1  0  0
   -4.5505  -22.0381   45.8216 C   0  0  0  1  0  0
   -3.5348  -21.1190   45.4857 C   0  0  0  1  0  0
   -2.3739  -21.0518   46.1921 N   0  0  0  1  0  0
   -2.1705  -21.8783   47.2605 C   0  0  0  1  0  0
   -3.1487  -22.8164   47.6759 C   0  0  0  1  0  0
   -2.9993  -23.6763   48.7636 N   0  0  0  1  0  0
   -2.2394  -23.5118   49.9148 C   0  0  0  1  0  0
   -1.9490  -22.4033   50.3131 O   0  0  0  1  0  0
   -1.7677  -24.7612   50.6939 C   0  0  0  1  0  0
   -0.2338  -24.7429   50.8991 C   0  0  0  1  0  0
    0.3055  -24.8983   52.2064 C   0  0  0  1  0  0
    1.6864  -24.8432   52.4567 C   0  0  0  1  0  0
    2.5797  -24.6463   51.3982 C   0  0  0  1  0  0
    2.0898  -24.5276   50.0881 C   0  0  0  1  0  0
    0.7004  -24.5866   49.8140 C   0  0  0  1  0  0
    0.2978  -24.4816   48.3555 C   0  0  0  1  0  0
    0.9080  -25.6269   47.5240 C   0  0  0  1  0  0
    0.6549  -23.1035   47.7421 C   0  0  0  1  0  0
   -2.1272  -26.1204   49.9714 C   0  0  0  1  0  0
   -3.4931  -26.7855   50.3084 C   0  0  0  1  0  0
   -3.7980  -26.8172   51.7722 N   0  0  0  1  0  0
   -4.9383  -27.4505   52.2666 C   0  0  0  1  0  0
   -6.2139  -27.0900   51.7825 C   0  0  0  1  0  0
   -7.3730  -27.6757   52.3191 C   0  0  0  1  0  0
   -7.2706  -28.6456   53.3449 C   0  0  0  1  0  0
   -8.5207  -29.2397   53.9683 C   0  0  0  1  0  0
   -8.6992  -28.8837   55.4478 C   0  0  0  1  0  0
   -9.1899  -29.7133   56.1841 O   0  0  0  1  0  0
   -8.3059  -27.6801   55.9025 O   0  0  0  1  0  0
   -9.7616  -29.3792   53.0999 C   0  0  0  1  0  0
   -9.0002  -30.6107   53.5220 C   0  0  0  1  0  0
   -6.0029  -29.0478   53.7993 C   0  0  0  1  0  0
   -4.8433  -28.4528   53.2680 C   0  0  0  1  0  0
   -2.8537  -26.0900   52.6663 C   0  0  0  1  0  0
   -2.5659  -24.7020   52.0536 C   0  0  0  1  0  0
   -4.3517  -22.8872   46.9283 C   0  0  0  1  0  0
   -5.4844  -22.3023   44.0039 H   0  0
   -6.2195  -21.1074   45.0507 H   0  0
   -6.5263  -22.8671   45.3805 H   0  0
   -3.6833  -20.4469   44.6405 H   0  0
   -1.2304  -21.8147   47.8085 H   0  0
   -3.5479  -24.5930   48.7028 H   0  0
   -0.3753  -25.0656   53.0411 H   0  0
    2.0615  -24.9537   53.4741 H   0  0
    3.6510  -24.5854   51.5899 H   0  0
    2.7914  -24.3874   49.2658 H   0  0
   -0.7877  -24.5750   48.3233 H   0  0
    0.5617  -26.5774   47.9300 H   0  0
    1.9938  -25.5795   47.6065 H   0  0
    0.6091  -25.5365   46.4797 H   0  0
    1.7310  -22.9574   47.8353 H   0  0
    0.1449  -22.3314   48.3182 H   0  0
    0.3547  -23.0566   46.6953 H   0  0
   -2.0873  -25.9550   48.8948 H   0  0
   -1.3378  -26.8407   50.1859 H   0  0
   -4.2869  -26.2420   49.7960 H   0  0
   -3.4936  -27.8068   49.9276 H   0  0
   -6.3008  -26.3512   50.9858 H   0  0
   -8.3536  -27.3823   51.9444 H   0  0
   -8.8201  -26.9890   55.3021 H   0  0
   -9.5558  -29.1145   52.0627 H   0  0
  -10.6735  -29.2501   53.6828 H   0  0
   -9.5067  -31.1400   54.3291 H   0  0
   -8.3881  -31.0035   52.7101 H   0  0
   -5.9178  -29.8206   54.5633 H   0  0
   -3.8630  -28.7643   53.6286 H   0  0
   -3.3036  -25.9677   53.6515 H   0  0
   -1.9231  -26.6512   52.7511 H   0  0
   -1.9963  -24.1122   52.7718 H   0  0
   -3.5129  -24.1891   51.8859 H   0  0
   -5.1254  -23.6011   47.2109 H   0  0
  1  2  1  0
  2  3  2  0
  2 37  1  0
  3  4  1  0
  4  5  2  0
  5  6  1  0
  6  7  1  0
  6 37  2  0
  7  8  1  0
  8  9  2  0
  8 10  1  0
 10 11  1  0
 10 20  1  0
 10 36  1  0
 11 12  2  0
 11 16  1  0
 12 13  1  0
 13 14  2  0
 14 15  1  0
 15 16  2  0
 16 17  1  0
 17 18  1  0
 17 19  1  0
 20 21  1  0
 21 22  1  0
 22 23  1  0
 22 35  1  0
 23 24  2  0
 23 34  1  0
 24 25  1  0
 25 26  2  0
 26 27  1  0
 26 33  1  0
 27 28  1  0
 27 31  1  0
 27 32  1  0
 28 29  2  0
 28 30  1  0
 31 32  1  0
 33 34  2  0
 35 36  1  0
  1 38  1  0
  1 39  1  0
  1 40  1  0
  3 41  1  0
  5 42  1  0
  7 43  1  0
 12 44  1  0
 13 45  1  0
 14 46  1  0
 15 47  1  0
 17 48  1  0
 18 49  1  0
 18 50  1  0
 18 51  1  0
 19 52  1  0
 19 53  1  0
 19 54  1  0
 20 55  1  0
 20 56  1  0
 21 57  1  0
 21 58  1  0
 24 59  1  0
 25 60  1  0
 30 61  1  0
 31 62  1  0
 31 63  1  0
 32 64  1  0
 32 65  1  0
 33 66  1  0
 34 67  1  0
 35 68  1  0
 35 69  1  0
 36 70  1  0
 36 71  1  0
 37 72  1  0
M  END
> <Name>
Molecule

> <AbsoluteEnergy>
71.0122

> <Clean Energy>
210.679

> <ConfNumber>
28

> <MOL_NUMBER>
6

> <RelativeEnergy>
9.00636

> <POSE_NUMBER>
11

> <LibDockScore>
126.8953

> <HotSpots>
2.27,-24.92,52.19,A,58,13
1.27,-23.52,47.59,A,27,19
-4.93,-23.52,47.59,A,26,37

$$$$
Molecule
  SciTegic05072616053D

 72 76  0  0  0  0            999 V2000
   -4.3428  -20.8061   59.8027 C   0  0  0  1  0  0
   -5.7620  -21.1275   60.1406 C   0  0  0  1  0  0
   -6.5102  -20.2556   60.9551 C   0  0  0  1  0  0
   -7.8034  -20.5239   61.2838 N   0  0  0  1  0  0
   -8.4030  -21.6583   60.8215 C   0  0  0  1  0  0
   -7.7209  -22.5826   59.9879 C   0  0  0  1  0  0
   -8.2896  -23.7523   59.4850 N   0  0  0  1  0  0
   -9.5861  -24.2300   59.6414 C   0  0  0  1  0  0
  -10.3338  -23.7227   60.4481 O   0  0  0  1  0  0
  -10.0823  -25.4106   58.7825 C   0  0  0  1  0  0
  -11.5567  -25.7324   59.1505 C   0  0  0  1  0  0
  -12.5457  -24.8651   58.6088 C   0  0  0  1  0  0
  -13.9128  -25.0407   58.8371 C   0  0  0  1  0  0
  -14.3486  -26.0854   59.6442 C   0  0  0  1  0  0
  -13.4136  -26.9439   60.2250 C   0  0  0  1  0  0
  -12.0190  -26.7989   60.0091 C   0  0  0  1  0  0
  -11.1102  -27.7880   60.7250 C   0  0  0  1  0  0
  -11.7983  -29.0533   61.2903 C   0  0  0  1  0  0
  -10.3115  -27.1196   61.8616 C   0  0  0  1  0  0
   -9.9282  -25.0085   57.2690 C   0  0  0  1  0  0
  -10.3253  -26.1339   56.2908 C   0  0  0  1  0  0
   -9.5179  -27.3639   56.5462 N   0  0  0  1  0  0
   -8.8408  -28.0448   55.5383 C   0  0  0  1  0  0
   -8.8899  -27.5995   54.1976 C   0  0  0  1  0  0
   -8.1976  -28.2842   53.1864 C   0  0  0  1  0  0
   -7.4364  -29.4232   53.4983 C   0  0  0  1  0  0
   -6.6764  -30.1478   52.4141 C   0  0  0  1  0  0
   -5.2498  -29.6434   52.2685 C   0  0  0  1  0  0
   -5.0193  -28.7393   51.4983 O   0  0  0  1  0  0
   -4.2886  -30.2092   52.9991 O   0  0  0  1  0  0
   -7.4176  -30.6065   51.1667 C   0  0  0  1  0  0
   -6.9410  -31.6264   52.1719 C   0  0  0  1  0  0
   -7.3810  -29.8789   54.8268 C   0  0  0  1  0  0
   -8.0800  -29.1988   55.8368 C   0  0  0  1  0  0
   -9.4700  -27.8041   57.9712 C   0  0  0  1  0  0
   -9.0953  -26.6161   58.8833 C   0  0  0  1  0  0
   -6.3751  -22.2978   59.6558 C   0  0  0  1  0  0
   -3.8445  -20.6899   60.7651 H   0  0
   -4.3807  -19.8195   59.3408 H   0  0
   -3.8580  -21.5473   59.1673 H   0  0
   -6.0430  -19.3453   61.3308 H   0  0
   -9.4370  -21.8611   61.1006 H   0  0
   -7.6390  -24.3666   58.8982 H   0  0
  -12.2232  -24.0281   57.9894 H   0  0
  -14.6349  -24.3613   58.3842 H   0  0
  -15.4137  -26.2332   59.8224 H   0  0
  -13.7666  -27.7522   60.8654 H   0  0
  -10.4487  -28.1235   59.9263 H   0  0
  -12.2863  -29.5450   60.4488 H   0  0
  -12.5749  -28.7073   61.9724 H   0  0
  -11.0954  -29.7199   61.7899 H   0  0
  -11.0178  -26.6919   62.5731 H   0  0
   -9.7116  -26.3161   61.4343 H   0  0
   -9.6691  -27.8467   62.3584 H   0  0
  -10.5484  -24.1344   57.0705 H   0  0
   -8.8920  -24.7278   57.0805 H   0  0
  -11.3829  -26.3653   56.4175 H   0  0
  -10.1566  -25.7995   55.2672 H   0  0
   -9.4726  -26.7134   53.9458 H   0  0
   -8.2507  -27.9313   52.1565 H   0  0
   -4.3326  -31.2320   52.7658 H   0  0
   -6.7751  -30.5782   50.2866 H   0  0
   -8.4897  -30.4286   51.2511 H   0  0
   -7.7591  -31.9932   52.7918 H   0  0
   -6.0440  -32.1416   51.8282 H   0  0
   -6.7935  -30.7632   55.0737 H   0  0
   -8.0357  -29.5645   56.8627 H   0  0
   -8.7261  -28.5930   58.0822 H   0  0
  -10.4467  -28.1898   58.2635 H   0  0
   -9.0646  -26.9625   59.9163 H   0  0
   -8.0937  -26.2746   58.6219 H   0  0
   -5.8129  -22.9854   59.0240 H   0  0
  1  2  1  0
  2  3  2  0
  2 37  1  0
  3  4  1  0
  4  5  2  0
  5  6  1  0
  6  7  1  0
  6 37  2  0
  7  8  1  0
  8  9  2  0
  8 10  1  0
 10 11  1  0
 10 20  1  0
 10 36  1  0
 11 12  2  0
 11 16  1  0
 12 13  1  0
 13 14  2  0
 14 15  1  0
 15 16  2  0
 16 17  1  0
 17 18  1  0
 17 19  1  0
 20 21  1  0
 21 22  1  0
 22 23  1  0
 22 35  1  0
 23 24  2  0
 23 34  1  0
 24 25  1  0
 25 26  2  0
 26 27  1  0
 26 33  1  0
 27 28  1  0
 27 31  1  0
 27 32  1  0
 28 29  2  0
 28 30  1  0
 31 32  1  0
 33 34  2  0
 35 36  1  0
  1 38  1  0
  1 39  1  0
  1 40  1  0
  3 41  1  0
  5 42  1  0
  7 43  1  0
 12 44  1  0
 13 45  1  0
 14 46  1  0
 15 47  1  0
 17 48  1  0
 18 49  1  0
 18 50  1  0
 18 51  1  0
 19 52  1  0
 19 53  1  0
 19 54  1  0
 20 55  1  0
 20 56  1  0
 21 57  1  0
 21 58  1  0
 24 59  1  0
 25 60  1  0
 30 61  1  0
 31 62  1  0
 31 63  1  0
 32 64  1  0
 32 65  1  0
 33 66  1  0
 34 67  1  0
 35 68  1  0
 35 69  1  0
 36 70  1  0
 36 71  1  0
 37 72  1  0
M  END
> <Name>
Molecule

> <AbsoluteEnergy>
71.613

> <Clean Energy>
210.679

> <ConfNumber>
33

> <MOL_NUMBER>
6

> <RelativeEnergy>
9.60715

> <POSE_NUMBER>
12

> <LibDockScore>
125.3213

> <HotSpots>
-7.93,-28.32,52.38,A,59,25
-7.13,-31.92,50.98,A,49,32
-6.73,-23.12,59.38,A,84,37

$$$$
Molecule
  SciTegic05072616053D

 72 76  0  0  0  0            999 V2000
   -5.3002  -22.1174   45.9141 C   0  0  0  1  0  0
   -4.6870  -23.4673   46.0915 C   0  0  0  1  0  0
   -4.8631  -24.4732   45.1219 C   0  0  0  1  0  0
   -4.3105  -25.7067   45.2726 N   0  0  0  1  0  0
   -3.5727  -25.9872   46.3826 C   0  0  0  1  0  0
   -3.3561  -25.0369   47.4094 C   0  0  0  1  0  0
   -2.6089  -25.4310   48.5192 N   0  0  0  1  0  0
   -2.1840  -24.6671   49.5979 C   0  0  0  1  0  0
   -2.4290  -23.4829   49.6510 O   0  0  0  1  0  0
   -1.4116  -25.2970   50.7780 C   0  0  0  1  0  0
    0.0568  -24.8172   50.7612 C   0  0  0  1  0  0
    0.7207  -24.9963   49.5170 C   0  0  0  1  0  0
    2.0502  -24.6167   49.3079 C   0  0  0  1  0  0
    2.7790  -24.0558   50.3530 C   0  0  0  1  0  0
    2.1744  -23.8798   51.6006 C   0  0  0  1  0  0
    0.8247  -24.2417   51.8417 C   0  0  0  1  0  0
    0.3140  -24.0000   53.2511 C   0  0  0  1  0  0
    0.0063  -25.3305   53.9680 C   0  0  0  1  0  0
    1.2278  -23.1295   54.1469 C   0  0  0  1  0  0
   -2.2770  -24.9406   52.0158 C   0  0  0  1  0  0
   -3.7329  -25.4282   51.9165 C   0  0  0  1  0  0
   -3.8818  -26.8684   51.5446 N   0  0  0  1  0  0
   -5.0696  -27.5369   51.8491 C   0  0  0  1  0  0
   -6.2256  -26.7909   52.1768 C   0  0  0  1  0  0
   -7.4379  -27.4299   52.4777 C   0  0  0  1  0  0
   -7.5243  -28.8320   52.4613 C   0  0  0  1  0  0
   -8.8323  -29.5179   52.7858 C   0  0  0  1  0  0
   -9.3055  -29.2802   54.2181 C   0  0  0  1  0  0
   -9.9834  -30.1176   54.7683 O   0  0  0  1  0  0
   -8.9733  -28.1521   54.8467 O   0  0  0  1  0  0
   -9.1361  -30.8527   52.1204 C   0  0  0  1  0  0
   -9.9014  -29.6195   51.7080 C   0  0  0  1  0  0
   -6.3828  -29.5892   52.1396 C   0  0  0  1  0  0
   -5.1682  -28.9491   51.8370 C   0  0  0  1  0  0
   -2.7829  -27.5560   50.7896 C   0  0  0  1  0  0
   -1.4068  -26.8538   50.8060 C   0  0  0  1  0  0
   -3.9215  -23.7493   47.2393 C   0  0  0  1  0  0
   -6.3643  -22.3135   45.7829 H   0  0
   -4.9216  -21.7671   44.9539 H   0  0
   -5.0971  -21.4204   46.7271 H   0  0
   -5.4547  -24.2587   44.2319 H   0  0
   -3.1330  -26.9794   46.4840 H   0  0
   -2.3245  -26.4622   48.5424 H   0  0
    0.1706  -25.4483   48.6917 H   0  0
    2.5135  -24.7592   48.3316 H   0  0
    3.8155  -23.7556   50.1991 H   0  0
    2.7590  -23.4506   52.4143 H   0  0
   -0.5994  -23.4231   53.1061 H   0  0
    0.9182  -25.9263   54.0082 H   0  0
   -0.7471  -25.8714   53.3953 H   0  0
   -0.3588  -25.1398   54.9772 H   0  0
    1.3579  -22.1761   53.6349 H   0  0
    2.1973  -23.6261   54.1877 H   0  0
    0.8115  -22.9901   55.1446 H   0  0
   -2.2773  -23.8585   52.1470 H   0  0
   -1.8197  -25.3781   52.9032 H   0  0
   -4.2571  -24.8218   51.1778 H   0  0
   -4.2240  -25.2634   52.8756 H   0  0
   -6.1739  -25.7023   52.1959 H   0  0
   -8.3172  -26.8354   52.7255 H   0  0
   -9.3230  -27.3849   54.2209 H   0  0
   -9.7299  -31.4968   52.7689 H   0  0
   -8.3730  -31.1166   51.3882 H   0  0
   -9.5474  -29.2261   50.7551 H   0  0
  -10.9034  -29.6053   52.1368 H   0  0
   -6.4405  -30.6776   52.1249 H   0  0
   -4.2914  -29.5477   51.5900 H   0  0
   -2.6632  -28.5610   51.1944 H   0  0
   -3.0978  -27.6750   49.7529 H   0  0
   -0.8300  -27.2111   49.9529 H   0  0
   -0.8664  -27.1808   51.6943 H   0  0
   -3.7645  -22.9792   47.9945 H   0  0
  1  2  1  0
  2  3  2  0
  2 37  1  0
  3  4  1  0
  4  5  2  0
  5  6  1  0
  6  7  1  0
  6 37  2  0
  7  8  1  0
  8  9  2  0
  8 10  1  0
 10 11  1  0
 10 20  1  0
 10 36  1  0
 11 12  2  0
 11 16  1  0
 12 13  1  0
 13 14  2  0
 14 15  1  0
 15 16  2  0
 16 17  1  0
 17 18  1  0
 17 19  1  0
 20 21  1  0
 21 22  1  0
 22 23  1  0
 22 35  1  0
 23 24  2  0
 23 34  1  0
 24 25  1  0
 25 26  2  0
 26 27  1  0
 26 33  1  0
 27 28  1  0
 27 31  1  0
 27 32  1  0
 28 29  2  0
 28 30  1  0
 31 32  1  0
 33 34  2  0
 35 36  1  0
  1 38  1  0
  1 39  1  0
  1 40  1  0
  3 41  1  0
  5 42  1  0
  7 43  1  0
 12 44  1  0
 13 45  1  0
 14 46  1  0
 15 47  1  0
 17 48  1  0
 18 49  1  0
 18 50  1  0
 18 51  1  0
 19 52  1  0
 19 53  1  0
 19 54  1  0
 20 55  1  0
 20 56  1  0
 21 57  1  0
 21 58  1  0
 24 59  1  0
 25 60  1  0
 30 61  1  0
 31 62  1  0
 31 63  1  0
 32 64  1  0
 32 65  1  0
 33 66  1  0
 34 67  1  0
 35 68  1  0
 35 69  1  0
 36 70  1  0
 36 71  1  0
 37 72  1  0
M  END
> <Name>
Molecule

> <AbsoluteEnergy>
74.7269

> <Clean Energy>
210.679

> <ConfNumber>
45

> <MOL_NUMBER>
6

> <RelativeEnergy>
12.7211

> <POSE_NUMBER>
13

> <LibDockScore>
122.9722

> <HotSpots>
-5.13,-22.92,46.19,A,18,1
1.67,-24.32,50.98,A,50,13
-7.93,-28.32,52.38,A,59,25

$$$$
Molecule
  SciTegic05072616053D

 72 76  0  0  0  0            999 V2000
   -4.3254  -20.9304   59.4135 C   0  0  0  1  0  0
   -5.6961  -21.2695   59.9014 C   0  0  0  1  0  0
   -6.3477  -20.4266   60.8225 C   0  0  0  1  0  0
   -7.5943  -20.7115   61.2886 N   0  0  0  1  0  0
   -8.2407  -21.8347   60.8634 C   0  0  0  1  0  0
   -7.6568  -22.7297   59.9294 C   0  0  0  1  0  0
   -8.2771  -23.8868   59.4593 N   0  0  0  1  0  0
   -9.5743  -24.3347   59.6838 C   0  0  0  1  0  0
  -10.2527  -23.8381   60.5557 O   0  0  0  1  0  0
  -10.1598  -25.4684   58.8179 C   0  0  0  1  0  0
  -11.6451  -25.7013   59.2086 C   0  0  0  1  0  0
  -12.5877  -24.7724   58.6869 C   0  0  0  1  0  0
  -13.9591  -24.8652   58.9368 C   0  0  0  1  0  0
  -14.4451  -25.8854   59.7465 C   0  0  0  1  0  0
  -13.5552  -26.8026   60.3082 C   0  0  0  1  0  0
  -12.1579  -26.7421   60.0702 C   0  0  0  1  0  0
  -11.3001  -27.7885   60.7669 C   0  0  0  1  0  0
  -12.0596  -28.9921   61.3740 C   0  0  0  1  0  0
  -10.4126  -27.1694   61.8649 C   0  0  0  1  0  0
  -10.0070  -25.0541   57.3075 C   0  0  0  1  0  0
  -10.4923  -26.1372   56.3214 C   0  0  0  1  0  0
   -9.7606  -27.4198   56.5447 N   0  0  0  1  0  0
   -9.1462  -28.1271   55.5151 C   0  0  0  1  0  0
   -8.9192  -27.5295   54.2543 C   0  0  0  1  0  0
   -8.2906  -28.2440   53.2223 C   0  0  0  1  0  0
   -7.8699  -29.5676   53.4342 C   0  0  0  1  0  0
   -7.1766  -30.3290   52.3307 C   0  0  0  1  0  0
   -5.6622  -30.2772   52.4522 C   0  0  0  1  0  0
   -5.0459  -29.4612   51.8056 O   0  0  0  1  0  0
   -5.0521  -31.1319   53.2739 O   0  0  0  1  0  0
   -7.7955  -30.3509   50.9406 C   0  0  0  1  0  0
   -7.8078  -31.6015   51.7854 C   0  0  0  1  0  0
   -8.0917  -30.1753   54.6821 C   0  0  0  1  0  0
   -8.7277  -29.4635   55.7116 C   0  0  0  1  0  0
   -9.7158  -27.8835   57.9623 C   0  0  0  1  0  0
   -9.2502  -26.7356   58.8837 C   0  0  0  1  0  0
   -6.3584  -22.4279   59.4544 C   0  0  0  1  0  0
   -3.7204  -20.8408   60.3157 H   0  0
   -4.4177  -19.9305   58.9894 H   0  0
   -3.9152  -21.6494   58.7044 H   0  0
   -5.8422  -19.5256   61.1700 H   0  0
   -9.2355  -22.0515   61.2526 H   0  0
   -7.6719  -24.5164   58.8410 H   0  0
  -12.2246  -23.9535   58.0659 H   0  0
  -14.6453  -24.1405   58.4986 H   0  0
  -15.5143  -25.9686   59.9415 H   0  0
  -13.9468  -27.5912   60.9508 H   0  0
  -10.6953  -28.1817   59.9498 H   0  0
  -12.6135  -29.4551   60.5573 H   0  0
  -12.7827  -28.5811   62.0785 H   0  0
  -11.3906  -29.7040   61.8575 H   0  0
  -11.0585  -26.6818   62.5951 H   0  0
   -9.7704  -26.4181   61.4053 H   0  0
   -9.8087  -27.9372   62.3485 H   0  0
  -10.5735  -24.1395   57.1327 H   0  0
   -8.9584  -24.8371   57.1037 H   0  0
  -11.5601  -26.3028   56.4645 H   0  0
  -10.3208  -25.7988   55.2995 H   0  0
   -9.2362  -26.5011   54.0813 H   0  0
   -8.1285  -27.7706   52.2540 H   0  0
   -5.3534  -32.0848   52.9518 H   0  0
   -7.0324  -30.3976   50.1637 H   0  0
   -8.7701  -29.8629   50.9297 H   0  0
   -8.7893  -31.7810   52.2242 H   0  0
   -7.0508  -32.3149   51.4595 H   0  0
   -7.7688  -31.2026   54.8511 H   0  0
   -8.9009  -29.9465   56.6733 H   0  0
   -9.0218  -28.7196   58.0485 H   0  0
  -10.7098  -28.2108   58.2673 H   0  0
   -9.2235  -27.0987   59.9111 H   0  0
   -8.2336  -26.4546   58.6087 H   0  0
   -5.8709  -23.0932   58.7418 H   0  0
  1  2  1  0
  2  3  2  0
  2 37  1  0
  3  4  1  0
  4  5  2  0
  5  6  1  0
  6  7  1  0
  6 37  2  0
  7  8  1  0
  8  9  2  0
  8 10  1  0
 10 11  1  0
 10 20  1  0
 10 36  1  0
 11 12  2  0
 11 16  1  0
 12 13  1  0
 13 14  2  0
 14 15  1  0
 15 16  2  0
 16 17  1  0
 17 18  1  0
 17 19  1  0
 20 21  1  0
 21 22  1  0
 22 23  1  0
 22 35  1  0
 23 24  2  0
 23 34  1  0
 24 25  1  0
 25 26  2  0
 26 27  1  0
 26 33  1  0
 27 28  1  0
 27 31  1  0
 27 32  1  0
 28 29  2  0
 28 30  1  0
 31 32  1  0
 33 34  2  0
 35 36  1  0
  1 38  1  0
  1 39  1  0
  1 40  1  0
  3 41  1  0
  5 42  1  0
  7 43  1  0
 12 44  1  0
 13 45  1  0
 14 46  1  0
 15 47  1  0
 17 48  1  0
 18 49  1  0
 18 50  1  0
 18 51  1  0
 19 52  1  0
 19 53  1  0
 19 54  1  0
 20 55  1  0
 20 56  1  0
 21 57  1  0
 21 58  1  0
 24 59  1  0
 25 60  1  0
 30 61  1  0
 31 62  1  0
 31 63  1  0
 32 64  1  0
 32 65  1  0
 33 66  1  0
 34 67  1  0
 35 68  1  0
 35 69  1  0
 36 70  1  0
 36 71  1  0
 37 72  1  0
M  END
> <Name>
Molecule

> <AbsoluteEnergy>
71.613

> <Clean Energy>
210.679

> <ConfNumber>
33

> <MOL_NUMBER>
6

> <RelativeEnergy>
9.60715

> <POSE_NUMBER>
14

> <LibDockScore>
122.8753

> <HotSpots>
-6.93,-20.92,60.98,A,90,3
-8.73,-28.12,54.38,A,70,24
-8.53,-31.32,51.19,A,51,31

$$$$
Molecule
  SciTegic05072616053D

 72 76  0  0  0  0            999 V2000
    2.7160  -24.4986   51.2542 C   0  0  0  1  0  0
    1.4968  -24.5844   52.1133 C   0  0  0  1  0  0
    1.2610  -23.6272   53.1179 C   0  0  0  1  0  0
    0.1619  -23.6925   53.9174 N   0  0  0  1  0  0
   -0.7457  -24.6943   53.7444 C   0  0  0  1  0  0
   -0.5973  -25.6818   52.7346 C   0  0  0  1  0  0
   -1.5255  -26.6942   52.4880 N   0  0  0  1  0  0
   -2.7009  -26.9646   53.1805 C   0  0  0  1  0  0
   -2.9929  -26.3333   54.1728 O   0  0  0  1  0  0
   -3.7009  -28.0572   52.7400 C   0  0  0  1  0  0
   -3.7822  -29.0807   53.8831 C   0  0  0  1  0  0
   -2.5644  -29.2328   54.5969 C   0  0  0  1  0  0
   -2.4341  -30.1043   55.6792 C   0  0  0  1  0  0
   -3.5271  -30.8730   56.0780 C   0  0  0  1  0  0
   -4.7384  -30.7714   55.3849 C   0  0  0  1  0  0
   -4.9011  -29.8922   54.2839 C   0  0  0  1  0  0
   -6.2510  -29.8939   53.5933 C   0  0  0  1  0  0
   -6.4723  -31.2115   52.8268 C   0  0  0  1  0  0
   -7.4636  -29.6124   54.5113 C   0  0  0  1  0  0
   -3.3547  -28.8825   51.4438 C   0  0  0  1  0  0
   -3.7960  -28.2497   50.1076 C   0  0  0  1  0  0
   -3.7102  -26.7701   50.1999 N   0  0  0  1  0  0
   -2.7527  -26.0440   49.4903 C   0  0  0  1  0  0
   -1.9414  -26.6831   48.5243 C   0  0  0  1  0  0
   -0.8413  -26.0245   47.9604 C   0  0  0  1  0  0
   -0.5387  -24.7087   48.3399 C   0  0  0  1  0  0
    0.7483  -24.0797   47.8596 C   0  0  0  1  0  0
    1.7567  -25.1337   47.3945 C   0  0  0  1  0  0
    2.1596  -25.1114   46.2533 O   0  0  0  1  0  0
    2.1728  -26.0621   48.2616 O   0  0  0  1  0  0
    1.2780  -22.8133   48.5142 C   0  0  0  1  0  0
    0.6749  -22.7486   47.1303 C   0  0  0  1  0  0
   -1.4181  -24.0125   49.1871 C   0  0  0  1  0  0
   -2.5287  -24.6693   49.7412 C   0  0  0  1  0  0
   -4.6570  -26.1875   51.2031 C   0  0  0  1  0  0
   -4.9515  -27.1982   52.3529 C   0  0  0  1  0  0
    0.5628  -25.6196   51.9266 C   0  0  0  1  0  0
    3.5503  -24.4946   51.9557 H   0  0
    2.6713  -23.5056   50.8070 H   0  0
    2.7962  -25.2913   50.5103 H   0  0
    1.9748  -22.8155   53.2586 H   0  0
   -1.6136  -24.7391   54.4023 H   0  0
   -1.3060  -27.3420   51.6651 H   0  0
   -1.6987  -28.6469   54.2880 H   0  0
   -1.4848  -30.1835   56.2090 H   0  0
   -3.4382  -31.5509   56.9269 H   0  0
   -5.5816  -31.3859   55.7003 H   0  0
   -6.2042  -29.0519   52.9027 H   0  0
   -6.4225  -32.0425   53.5304 H   0  0
   -5.6831  -31.3249   52.0835 H   0  0
   -7.4452  -31.2001   52.3353 H   0  0
   -7.2905  -28.6421   54.9768 H   0  0
   -7.4510  -30.3702   55.2947 H   0  0
   -8.4051  -29.6260   53.9621 H   0  0
   -3.8121  -29.8685   51.5263 H   0  0
   -2.2769  -29.0417   51.4111 H   0  0
   -4.8239  -28.5396   49.8898 H   0  0
   -3.1446  -28.6009   49.3073 H   0  0
   -2.1752  -27.7016   48.2145 H   0  0
   -0.2194  -26.5355   47.2254 H   0  0
    1.2964  -26.5295   48.6020 H   0  0
    2.3666  -22.7706   48.4806 H   0  0
    0.5897  -22.4366   49.2708 H   0  0
   -0.3338  -22.3359   47.1504 H   0  0
    1.4427  -22.6716   46.3604 H   0  0
   -1.2378  -22.9618   49.4142 H   0  0
   -3.2249  -24.1150   50.3706 H   0  0
   -5.5917  -25.9269   50.7066 H   0  0
   -4.2207  -25.2818   51.6245 H   0  0
   -5.2906  -26.6474   53.2303 H   0  0
   -5.7570  -27.8636   52.0421 H   0  0
    0.7328  -26.3745   51.1589 H   0  0
  1  2  1  0
  2  3  2  0
  2 37  1  0
  3  4  1  0
  4  5  2  0
  5  6  1  0
  6  7  1  0
  6 37  2  0
  7  8  1  0
  8  9  2  0
  8 10  1  0
 10 11  1  0
 10 20  1  0
 10 36  1  0
 11 12  2  0
 11 16  1  0
 12 13  1  0
 13 14  2  0
 14 15  1  0
 15 16  2  0
 16 17  1  0
 17 18  1  0
 17 19  1  0
 20 21  1  0
 21 22  1  0
 22 23  1  0
 22 35  1  0
 23 24  2  0
 23 34  1  0
 24 25  1  0
 25 26  2  0
 26 27  1  0
 26 33  1  0
 27 28  1  0
 27 31  1  0
 27 32  1  0
 28 29  2  0
 28 30  1  0
 31 32  1  0
 33 34  2  0
 35 36  1  0
  1 38  1  0
  1 39  1  0
  1 40  1  0
  3 41  1  0
  5 42  1  0
  7 43  1  0
 12 44  1  0
 13 45  1  0
 14 46  1  0
 15 47  1  0
 17 48  1  0
 18 49  1  0
 18 50  1  0
 18 51  1  0
 19 52  1  0
 19 53  1  0
 19 54  1  0
 20 55  1  0
 20 56  1  0
 21 57  1  0
 21 58  1  0
 24 59  1  0
 25 60  1  0
 30 61  1  0
 31 62  1  0
 31 63  1  0
 32 64  1  0
 32 65  1  0
 33 66  1  0
 34 67  1  0
 35 68  1  0
 35 69  1  0
 36 70  1  0
 36 71  1  0
 37 72  1  0
M  END
> <Name>
Molecule

> <AbsoluteEnergy>
80.7831

> <Clean Energy>
210.679

> <ConfNumber>
79

> <MOL_NUMBER>
6

> <RelativeEnergy>
18.7773

> <POSE_NUMBER>
15

> <LibDockScore>
122.5516

> <HotSpots>
0.87,-24.32,52.78,A,63,3
-8.73,-28.12,54.38,A,70,19
2.67,-25.52,46.78,P,25,29

$$$$
Molecule
  SciTegic05072616053D

 72 76  0  0  0  0            999 V2000
    3.1720  -24.7771   53.1051 C   0  0  0  1  0  0
    2.6527  -24.4100   51.7530 C   0  0  0  1  0  0
    3.5451  -24.2253   50.6805 C   0  0  0  1  0  0
    3.1038  -23.8888   49.4373 N   0  0  0  1  0  0
    1.7665  -23.7228   49.2108 C   0  0  0  1  0  0
    0.8016  -23.9013   50.2389 C   0  0  0  1  0  0
   -0.5764  -23.7610   50.0657 N   0  0  0  1  0  0
   -1.3422  -24.0261   48.9375 C   0  0  0  1  0  0
   -0.9837  -23.6219   47.8517 O   0  0  0  1  0  0
   -2.6420  -24.8539   49.0702 C   0  0  0  1  0  0
   -3.2283  -25.1550   47.6703 C   0  0  0  1  0  0
   -2.7283  -26.3170   47.0215 C   0  0  0  1  0  0
   -3.2763  -26.8049   45.8318 C   0  0  0  1  0  0
   -4.3352  -26.1278   45.2343 C   0  0  0  1  0  0
   -4.7875  -24.9269   45.7854 C   0  0  0  1  0  0
   -4.2134  -24.3747   46.9599 C   0  0  0  1  0  0
   -4.6753  -22.9796   47.3704 C   0  0  0  1  0  0
   -5.4796  -22.1937   46.3083 C   0  0  0  1  0  0
   -3.4947  -22.1041   47.8309 C   0  0  0  1  0  0
   -3.6394  -24.2027   50.0747 C   0  0  0  1  0  0
   -4.9465  -25.0090   50.2902 C   0  0  0  1  0  0
   -4.7083  -26.4391   50.6497 N   0  0  0  1  0  0
   -5.6086  -27.1220   51.4684 C   0  0  0  1  0  0
   -5.3666  -28.4529   51.8778 C   0  0  0  1  0  0
   -6.3048  -29.1432   52.6662 C   0  0  0  1  0  0
   -7.4963  -28.5140   53.0718 C   0  0  0  1  0  0
   -8.5199  -29.2638   53.9051 C   0  0  0  1  0  0
   -8.3445  -29.1012   55.4242 C   0  0  0  1  0  0
   -7.2250  -29.1195   55.8869 O   0  0  0  1  0  0
   -9.4116  -28.9425   56.2250 O   0  0  0  1  0  0
   -9.9285  -29.3936   53.3376 C   0  0  0  1  0  0
   -9.0194  -30.5987   53.3703 C   0  0  0  1  0  0
   -7.7318  -27.1788   52.6979 C   0  0  0  1  0  0
   -6.7967  -26.4890   51.9061 C   0  0  0  1  0  0
   -3.5160  -27.1230   50.0540 C   0  0  0  1  0  0
   -2.3085  -26.1860   49.8371 C   0  0  0  1  0  0
    1.2731  -24.2458   51.5264 C   0  0  0  1  0  0
    3.8842  -23.9910   53.3558 H   0  0
    3.7455  -25.6906   52.9476 H   0  0
    2.3964  -24.8955   53.8618 H   0  0
    4.6142  -24.3546   50.8491 H   0  0
    1.4298  -23.4452   48.2120 H   0  0
   -1.1155  -23.4006   50.9168 H   0  0
   -1.8869  -26.8468   47.4681 H   0  0
   -2.8767  -27.7102   45.3748 H   0  0
   -4.8094  -26.5329   44.3403 H   0  0
   -5.6065  -24.3975   45.2985 H   0  0
   -5.3624  -23.1825   48.1919 H   0  0
   -6.3439  -22.8075   46.0545 H   0  0
   -4.8456  -22.1259   45.4242 H   0  0
   -5.7798  -21.2071   46.6614 H   0  0
   -2.7804  -22.0253   47.0113 H   0  0
   -3.0103  -22.5915   48.6770 H   0  0
   -3.8453  -21.1131   48.1194 H   0  0
   -3.8982  -23.2060   49.7174 H   0  0
   -3.1403  -24.0817   51.0361 H   0  0
   -5.5419  -24.9702   49.3780 H   0  0
   -5.5258  -24.5383   51.0845 H   0  0
   -4.4433  -28.9495   51.5795 H   0  0
   -6.1075  -30.1727   52.9651 H   0  0
  -10.0158  -29.7764   56.0196 H   0  0
   -9.9967  -28.9680   52.3365 H   0  0
  -10.6759  -29.4315   54.1301 H   0  0
   -9.2834  -31.2800   54.1791 H   0  0
   -8.6032  -30.8157   52.3865 H   0  0
   -8.6429  -26.6767   53.0232 H   0  0
   -6.9892  -25.4534   51.6257 H   0  0
   -3.2148  -27.9398   50.7099 H   0  0
   -3.8008  -27.5578   49.0959 H   0  0
   -1.5423  -26.7273   49.2822 H   0  0
   -1.8832  -25.9350   50.8088 H   0  0
    0.5671  -24.3845   52.3452 H   0  0
  1  2  1  0
  2  3  2  0
  2 37  1  0
  3  4  1  0
  4  5  2  0
  5  6  1  0
  6  7  1  0
  6 37  2  0
  7  8  1  0
  8  9  2  0
  8 10  1  0
 10 11  1  0
 10 20  1  0
 10 36  1  0
 11 12  2  0
 11 16  1  0
 12 13  1  0
 13 14  2  0
 14 15  1  0
 15 16  2  0
 16 17  1  0
 17 18  1  0
 17 19  1  0
 20 21  1  0
 21 22  1  0
 22 23  1  0
 22 35  1  0
 23 24  2  0
 23 34  1  0
 24 25  1  0
 25 26  2  0
 26 27  1  0
 26 33  1  0
 27 28  1  0
 27 31  1  0
 27 32  1  0
 28 29  2  0
 28 30  1  0
 31 32  1  0
 33 34  2  0
 35 36  1  0
  1 38  1  0
  1 39  1  0
  1 40  1  0
  3 41  1  0
  5 42  1  0
  7 43  1  0
 12 44  1  0
 13 45  1  0
 14 46  1  0
 15 47  1  0
 17 48  1  0
 18 49  1  0
 18 50  1  0
 18 51  1  0
 19 52  1  0
 19 53  1  0
 19 54  1  0
 20 55  1  0
 20 56  1  0
 21 57  1  0
 21 58  1  0
 24 59  1  0
 25 60  1  0
 30 61  1  0
 31 62  1  0
 31 63  1  0
 32 64  1  0
 32 65  1  0
 33 66  1  0
 34 67  1  0
 35 68  1  0
 35 69  1  0
 36 70  1  0
 36 71  1  0
 37 72  1  0
M  END
> <Name>
Molecule

> <AbsoluteEnergy>
76.1322

> <Clean Energy>
210.679

> <ConfNumber>
52

> <MOL_NUMBER>
6

> <RelativeEnergy>
14.1264

> <POSE_NUMBER>
16

> <LibDockScore>
117.6327

> <HotSpots>
-2.53,-22.32,48.19,A,29,19
-9.53,-30.12,52.78,A,62,31
2.27,-24.92,52.19,A,58,37

$$$$
Molecule
  SciTegic05072616053D

 72 76  0  0  0  0            999 V2000
   -6.1337  -21.1052   49.7671 C   0  0  0  1  0  0
   -6.1274  -22.5752   50.0367 C   0  0  0  1  0  0
   -7.2867  -23.2032   50.5302 C   0  0  0  1  0  0
   -7.3155  -24.5402   50.7854 N   0  0  0  1  0  0
   -6.2038  -25.2944   50.5629 C   0  0  0  1  0  0
   -4.9948  -24.7408   50.0687 C   0  0  0  1  0  0
   -3.9087  -25.5941   49.8739 N   0  0  0  1  0  0
   -2.5791  -25.2795   49.6219 C   0  0  0  1  0  0
   -2.1920  -24.1349   49.6977 O   0  0  0  1  0  0
   -1.5388  -26.3563   49.2605 C   0  0  0  1  0  0
   -0.5831  -25.8346   48.1649 C   0  0  0  1  0  0
    0.7785  -25.6218   48.5233 C   0  0  0  1  0  0
    1.7285  -25.1260   47.6241 C   0  0  0  1  0  0
    1.3536  -24.8231   46.3186 C   0  0  0  1  0  0
    0.0324  -25.0288   45.9188 C   0  0  0  1  0  0
   -0.9545  -25.5432   46.7979 C   0  0  0  1  0  0
   -2.3197  -25.7138   46.1383 C   0  0  0  1  0  0
   -3.4002  -24.7445   46.6518 C   0  0  0  1  0  0
   -2.8332  -27.1413   45.9129 C   0  0  0  1  0  0
   -0.8265  -26.5655   50.6511 C   0  0  0  1  0  0
   -1.7391  -27.1211   51.7681 C   0  0  0  1  0  0
   -2.6121  -28.2129   51.2527 N   0  0  0  1  0  0
   -3.8058  -28.5556   51.8852 C   0  0  0  1  0  0
   -4.7641  -29.3797   51.2505 C   0  0  0  1  0  0
   -5.9998  -29.6455   51.8618 C   0  0  0  1  0  0
   -6.3013  -29.0948   53.1194 C   0  0  0  1  0  0
   -7.6621  -29.3025   53.7408 C   0  0  0  1  0  0
   -8.4976  -28.0229   53.7395 C   0  0  0  1  0  0
   -9.3028  -27.8461   54.6230 O   0  0  0  1  0  0
   -8.3285  -27.1140   52.7756 O   0  0  0  1  0  0
   -8.3874  -30.6316   53.5815 C   0  0  0  1  0  0
   -7.7818  -30.2651   54.9147 C   0  0  0  1  0  0
   -5.3329  -28.3283   53.7892 C   0  0  0  1  0  0
   -4.0978  -28.0604   53.1771 C   0  0  0  1  0  0
   -2.1349  -28.8348   49.9871 C   0  0  0  1  0  0
   -2.0786  -27.7844   48.8517 C   0  0  0  1  0  0
   -4.9744  -23.3497   49.8026 C   0  0  0  1  0  0
   -6.4220  -20.6456   50.7125 H   0  0
   -6.9569  -20.9491   49.0698 H   0  0
   -5.1870  -20.7205   49.3878 H   0  0
   -8.1804  -22.6062   50.7119 H   0  0
   -6.2444  -26.3633   50.7723 H   0  0
   -4.1311  -26.6394   49.9259 H   0  0
    1.0936  -25.8549   49.5404 H   0  0
    2.7595  -24.9773   47.9451 H   0  0
    2.0858  -24.4285   45.6141 H   0  0
   -0.2510  -24.7855   44.8948 H   0  0
   -2.0864  -25.4022   45.1202 H   0  0
   -3.0345  -23.7318   46.4819 H   0  0
   -3.4902  -24.8994   47.7270 H   0  0
   -4.3556  -24.9044   46.1522 H   0  0
   -2.8368  -27.6130   46.8956 H   0  0
   -2.0699  -27.6393   45.3151 H   0  0
   -3.8136  -27.1766   45.4378 H   0  0
   -0.4134  -25.6123   50.9809 H   0  0
    0.0129  -27.2475   50.5155 H   0  0
   -1.1211  -27.5084   52.5781 H   0  0
   -2.3634  -26.3168   52.1573 H   0  0
   -4.5408  -29.8134   50.2757 H   0  0
   -6.7284  -30.2815   51.3591 H   0  0
   -8.4819  -27.6442   51.8824 H   0  0
   -7.7759  -31.3594   53.0482 H   0  0
   -9.4692  -30.4984   53.5805 H   0  0
   -8.5408  -29.9370   55.6249 H   0  0
   -6.8468  -30.7967   55.0919 H   0  0
   -5.5408  -27.9406   54.7865 H   0  0
   -3.3544  -27.4629   53.7048 H   0  0
   -2.8136  -29.6382   49.7009 H   0  0
   -1.1394  -29.2506   50.1428 H   0  0
   -1.4530  -28.1765   48.0499 H   0  0
   -3.0800  -27.6711   48.4364 H   0  0
   -4.0692  -22.8800   49.4178 H   0  0
  1  2  1  0
  2  3  2  0
  2 37  1  0
  3  4  1  0
  4  5  2  0
  5  6  1  0
  6  7  1  0
  6 37  2  0
  7  8  1  0
  8  9  2  0
  8 10  1  0
 10 11  1  0
 10 20  1  0
 10 36  1  0
 11 12  2  0
 11 16  1  0
 12 13  1  0
 13 14  2  0
 14 15  1  0
 15 16  2  0
 16 17  1  0
 17 18  1  0
 17 19  1  0
 20 21  1  0
 21 22  1  0
 22 23  1  0
 22 35  1  0
 23 24  2  0
 23 34  1  0
 24 25  1  0
 25 26  2  0
 26 27  1  0
 26 33  1  0
 27 28  1  0
 27 31  1  0
 27 32  1  0
 28 29  2  0
 28 30  1  0
 31 32  1  0
 33 34  2  0
 35 36  1  0
  1 38  1  0
  1 39  1  0
  1 40  1  0
  3 41  1  0
  5 42  1  0
  7 43  1  0
 12 44  1  0
 13 45  1  0
 14 46  1  0
 15 47  1  0
 17 48  1  0
 18 49  1  0
 18 50  1  0
 18 51  1  0
 19 52  1  0
 19 53  1  0
 19 54  1  0
 20 55  1  0
 20 56  1  0
 21 57  1  0
 21 58  1  0
 24 59  1  0
 25 60  1  0
 30 61  1  0
 31 62  1  0
 31 63  1  0
 32 64  1  0
 32 65  1  0
 33 66  1  0
 34 67  1  0
 35 68  1  0
 35 69  1  0
 36 70  1  0
 36 71  1  0
 37 72  1  0
M  END
> <Name>
Molecule

> <AbsoluteEnergy>
76.8053

> <Clean Energy>
210.679

> <ConfNumber>
60

> <MOL_NUMBER>
6

> <RelativeEnergy>
14.7995

> <POSE_NUMBER>
17

> <LibDockScore>
117.0983

> <HotSpots>
-6.53,-23.32,50.38,A,45,3
-2.93,-26.32,45.98,A,15,19
-1.93,-29.12,49.19,A,34,35

$$$$
Molecule
  SciTegic05072616053D

 72 76  0  0  0  0            999 V2000
   -5.5959  -21.6139   45.7995 C   0  0  0  1  0  0
   -4.9959  -22.8902   46.2945 C   0  0  0  1  0  0
   -4.4101  -23.7941   45.3852 C   0  0  0  1  0  0
   -3.8639  -24.9702   45.7994 N   0  0  0  1  0  0
   -3.8783  -25.2941   47.1233 C   0  0  0  1  0  0
   -4.4334  -24.4285   48.0963 C   0  0  0  1  0  0
   -4.4470  -24.7472   49.4440 N   0  0  0  1  0  0
   -3.6641  -25.7113   50.0609 C   0  0  0  1  0  0
   -2.7970  -26.2790   49.4314 O   0  0  0  1  0  0
   -3.8510  -26.1027   51.5356 C   0  0  0  1  0  0
   -2.5615  -25.8196   52.3255 C   0  0  0  1  0  0
   -2.2324  -26.6346   53.4429 C   0  0  0  1  0  0
   -1.0468  -26.4631   54.1630 C   0  0  0  1  0  0
   -0.1397  -25.4712   53.7856 C   0  0  0  1  0  0
   -0.4426  -24.6284   52.7103 C   0  0  0  1  0  0
   -1.6550  -24.7566   51.9955 C   0  0  0  1  0  0
   -1.9079  -23.7334   50.9105 C   0  0  0  1  0  0
   -0.7074  -23.6003   49.9549 C   0  0  0  1  0  0
   -2.3257  -22.3599   51.4720 C   0  0  0  1  0  0
   -5.0707  -25.4534   52.2887 C   0  0  0  1  0  0
   -6.4775  -25.8813   51.7944 C   0  0  0  1  0  0
   -6.5504  -27.3602   51.7183 N   0  0  0  1  0  0
   -7.3728  -28.1458   52.5186 C   0  0  0  1  0  0
   -7.7297  -29.4575   52.1299 C   0  0  0  1  0  0
   -8.4127  -30.3047   53.0171 C   0  0  0  1  0  0
   -8.7658  -29.8442   54.2965 C   0  0  0  1  0  0
   -9.3584  -30.7865   55.3180 C   0  0  0  1  0  0
   -8.2924  -31.6454   56.0067 C   0  0  0  1  0  0
   -7.1218  -31.4726   55.7417 O   0  0  0  1  0  0
   -8.6716  -32.5690   56.8894 O   0  0  0  1  0  0
  -10.5638  -30.3153   56.1157 C   0  0  0  1  0  0
  -10.7299  -31.3995   55.0776 C   0  0  0  1  0  0
   -8.5334  -28.5035   54.6419 C   0  0  0  1  0  0
   -7.8374  -27.6611   53.7624 C   0  0  0  1  0  0
   -5.5437  -27.9392   50.7978 C   0  0  0  1  0  0
   -4.1674  -27.6391   51.4135 C   0  0  0  1  0  0
   -5.0023  -23.2102   47.6657 C   0  0  0  1  0  0
   -6.3374  -21.9192   45.0612 H   0  0
   -4.7913  -21.1158   45.2586 H   0  0
   -6.0209  -20.9890   46.5850 H   0  0
   -4.3941  -23.5452   44.3241 H   0  0
   -3.4510  -26.2451   47.4414 H   0  0
   -5.1235  -24.1994   50.0662 H   0  0
   -2.9265  -27.4178   53.7476 H   0  0
   -0.8306  -27.1032   55.0184 H   0  0
    0.7997  -25.3538   54.3258 H   0  0
    0.2708  -23.8577   52.4182 H   0  0
   -2.7528  -24.1098   50.3339 H   0  0
   -0.5179  -24.5734   49.5017 H   0  0
    0.1659  -23.3063   50.5372 H   0  0
   -0.9126  -22.8587   49.1829 H   0  0
   -1.5305  -22.0072   52.1288 H   0  0
   -3.2313  -22.4976   52.0628 H   0  0
   -2.5002  -21.6464   50.6667 H   0  0
   -4.9919  -24.3692   52.2082 H   0  0
   -4.9902  -25.6919   53.3492 H   0  0
   -6.6605  -25.4584   50.8066 H   0  0
   -7.2332  -25.5166   52.4900 H   0  0
   -7.4723  -29.8142   51.1326 H   0  0
   -8.6689  -31.3196   52.7132 H   0  0
   -9.3452  -33.1827   56.3677 H   0  0
  -10.9313  -29.3543   55.7557 H   0  0
  -10.5587  -30.7235   57.1264 H   0  0
  -10.8134  -32.3852   55.5354 H   0  0
  -11.1845  -31.0157   54.1643 H   0  0
   -8.8943  -28.1166   55.5949 H   0  0
   -7.6532  -26.6234   54.0406 H   0  0
   -5.6871  -29.0170   50.7214 H   0  0
   -5.6206  -27.4677   49.8181 H   0  0
   -3.3984  -28.1103   50.8014 H   0  0
   -4.1203  -28.0901   52.4047 H   0  0
   -5.4426  -22.5233   48.3885 H   0  0
  1  2  1  0
  2  3  2  0
  2 37  1  0
  3  4  1  0
  4  5  2  0
  5  6  1  0
  6  7  1  0
  6 37  2  0
  7  8  1  0
  8  9  2  0
  8 10  1  0
 10 11  1  0
 10 20  1  0
 10 36  1  0
 11 12  2  0
 11 16  1  0
 12 13  1  0
 13 14  2  0
 14 15  1  0
 15 16  2  0
 16 17  1  0
 17 18  1  0
 17 19  1  0
 20 21  1  0
 21 22  1  0
 22 23  1  0
 22 35  1  0
 23 24  2  0
 23 34  1  0
 24 25  1  0
 25 26  2  0
 26 27  1  0
 26 33  1  0
 27 28  1  0
 27 31  1  0
 27 32  1  0
 28 29  2  0
 28 30  1  0
 31 32  1  0
 33 34  2  0
 35 36  1  0
  1 38  1  0
  1 39  1  0
  1 40  1  0
  3 41  1  0
  5 42  1  0
  7 43  1  0
 12 44  1  0
 13 45  1  0
 14 46  1  0
 15 47  1  0
 17 48  1  0
 18 49  1  0
 18 50  1  0
 18 51  1  0
 19 52  1  0
 19 53  1  0
 19 54  1  0
 20 55  1  0
 20 56  1  0
 21 57  1  0
 21 58  1  0
 24 59  1  0
 25 60  1  0
 30 61  1  0
 31 62  1  0
 31 63  1  0
 32 64  1  0
 32 65  1  0
 33 66  1  0
 34 67  1  0
 35 68  1  0
 35 69  1  0
 36 70  1  0
 36 71  1  0
 37 72  1  0
M  END
> <Name>
Molecule

> <AbsoluteEnergy>
72.2661

> <Clean Energy>
210.679

> <ConfNumber>
37

> <MOL_NUMBER>
6

> <RelativeEnergy>
10.2603

> <POSE_NUMBER>
18

> <LibDockScore>
110.8389

> <HotSpots>
-4.93,-21.52,45.19,A,11,1
-0.33,-25.52,53.19,A,64,14
-8.73,-28.12,54.38,A,70,33

$$$$
Molecule
  SciTegic05072616053D

 72 76  0  0  0  0            999 V2000
    0.6743  -22.6463   54.8420 C   0  0  0  1  0  0
    1.1195  -23.5202   53.7165 C   0  0  0  1  0  0
    2.4438  -23.9971   53.6563 C   0  0  0  1  0  0
    2.8746  -24.7789   52.6291 N   0  0  0  1  0  0
    2.0120  -25.1227   51.6332 C   0  0  0  1  0  0
    0.6634  -24.7009   51.6354 C   0  0  0  1  0  0
   -0.1695  -25.1057   50.6048 N   0  0  0  1  0  0
   -1.5507  -25.2031   50.6810 C   0  0  0  1  0  0
   -2.0984  -25.3257   51.7533 O   0  0  0  1  0  0
   -2.4003  -25.1972   49.4051 C   0  0  0  1  0  0
   -2.1302  -23.9515   48.5273 C   0  0  0  1  0  0
   -0.9987  -23.9958   47.6647 C   0  0  0  1  0  0
   -0.6363  -22.9311   46.8368 C   0  0  0  1  0  0
   -1.4039  -21.7710   46.8277 C   0  0  0  1  0  0
   -2.5313  -21.6855   47.6456 C   0  0  0  1  0  0
   -2.9264  -22.7432   48.5057 C   0  0  0  1  0  0
   -4.1841  -22.4377   49.3115 C   0  0  0  1  0  0
   -5.4724  -23.0707   48.7441 C   0  0  0  1  0  0
   -4.0718  -22.4587   50.8433 C   0  0  0  1  0  0
   -1.9988  -26.5529   48.7188 C   0  0  0  1  0  0
   -2.1881  -27.7950   49.6133 C   0  0  0  1  0  0
   -3.4568  -27.7416   50.3878 N   0  0  0  1  0  0
   -3.6643  -28.5642   51.4870 C   0  0  0  1  0  0
   -2.5876  -28.9154   52.3313 C   0  0  0  1  0  0
   -2.7778  -29.8029   53.4027 C   0  0  0  1  0  0
   -4.0560  -30.3392   53.6590 C   0  0  0  1  0  0
   -4.2695  -31.3361   54.7824 C   0  0  0  1  0  0
   -3.8804  -32.7777   54.4027 C   0  0  0  1  0  0
   -3.4838  -32.9934   53.2783 O   0  0  0  1  0  0
   -3.9685  -33.7731   55.2939 O   0  0  0  1  0  0
   -4.0345  -30.8852   56.2164 C   0  0  0  1  0  0
   -5.4457  -31.0970   55.7199 C   0  0  0  1  0  0
   -5.1427  -29.9518   52.8532 C   0  0  0  1  0  0
   -4.9509  -29.0694   51.7750 C   0  0  0  1  0  0
   -4.4841  -26.7797   49.9107 C   0  0  0  1  0  0
   -3.9270  -25.3445   49.7184 C   0  0  0  1  0  0
    0.2203  -23.8776   52.6944 C   0  0  0  1  0  0
    1.3643  -21.8026   54.8263 H   0  0
    0.8953  -23.2206   55.7417 H   0  0
   -0.3696  -22.3377   54.7852 H   0  0
    3.1405  -23.7334   54.4520 H   0  0
    2.3721  -25.7409   50.8108 H   0  0
    0.2906  -25.3643   49.6740 H   0  0
   -0.3891  -24.8993   47.6497 H   0  0
    0.2449  -23.0088   46.2000 H   0  0
   -1.1267  -20.9346   46.1861 H   0  0
   -3.1294  -20.7746   47.6232 H   0  0
   -4.2928  -21.3671   49.1381 H   0  0
   -5.3148  -24.1485   48.7047 H   0  0
   -5.5922  -22.7050   47.7243 H   0  0
   -6.3430  -22.8251   49.3522 H   0  0
   -3.2900  -21.7418   51.0942 H   0  0
   -3.7008  -23.4507   51.1009 H   0  0
   -5.0119  -22.2307   51.3457 H   0  0
   -0.9538  -26.4976   48.4137 H   0  0
   -2.5941  -26.6789   47.8144 H   0  0
   -2.1908  -28.6879   48.9882 H   0  0
   -1.3510  -27.8669   50.3077 H   0  0
   -1.5993  -28.4933   52.1493 H   0  0
   -1.9354  -30.0777   54.0375 H   0  0
   -4.9678  -33.7423   55.6148 H   0  0
   -3.7806  -29.8264   56.2665 H   0  0
   -3.7013  -31.7108   56.8453 H   0  0
   -5.8636  -32.0354   56.0844 H   0  0
   -5.9424  -30.1511   55.5040 H   0  0
   -6.1395  -30.3381   53.0661 H   0  0
   -5.7999  -28.7740   51.1585 H   0  0
   -5.3021  -26.7486   50.6304 H   0  0
   -4.8863  -27.1338   48.9615 H   0  0
   -4.4891  -24.8662   48.9163 H   0  0
   -4.1481  -24.7703   50.6181 H   0  0
   -0.8097  -23.5220   52.7198 H   0  0
  1  2  1  0
  2  3  2  0
  2 37  1  0
  3  4  1  0
  4  5  2  0
  5  6  1  0
  6  7  1  0
  6 37  2  0
  7  8  1  0
  8  9  2  0
  8 10  1  0
 10 11  1  0
 10 20  1  0
 10 36  1  0
 11 12  2  0
 11 16  1  0
 12 13  1  0
 13 14  2  0
 14 15  1  0
 15 16  2  0
 16 17  1  0
 17 18  1  0
 17 19  1  0
 20 21  1  0
 21 22  1  0
 22 23  1  0
 22 35  1  0
 23 24  2  0
 23 34  1  0
 24 25  1  0
 25 26  2  0
 26 27  1  0
 26 33  1  0
 27 28  1  0
 27 31  1  0
 27 32  1  0
 28 29  2  0
 28 30  1  0
 31 32  1  0
 33 34  2  0
 35 36  1  0
  1 38  1  0
  1 39  1  0
  1 40  1  0
  3 41  1  0
  5 42  1  0
  7 43  1  0
 12 44  1  0
 13 45  1  0
 14 46  1  0
 15 47  1  0
 17 48  1  0
 18 49  1  0
 18 50  1  0
 18 51  1  0
 19 52  1  0
 19 53  1  0
 19 54  1  0
 20 55  1  0
 20 56  1  0
 21 57  1  0
 21 58  1  0
 24 59  1  0
 25 60  1  0
 30 61  1  0
 31 62  1  0
 31 63  1  0
 32 64  1  0
 32 65  1  0
 33 66  1  0
 34 67  1  0
 35 68  1  0
 35 69  1  0
 36 70  1  0
 36 71  1  0
 37 72  1  0
M  END
> <Name>
Molecule

> <AbsoluteEnergy>
79.0718

> <Clean Energy>
210.679

> <ConfNumber>
74

> <MOL_NUMBER>
6

> <RelativeEnergy>
17.066

> <POSE_NUMBER>
19

> <LibDockScore>
104.8304

> <HotSpots>
-0.93,-23.32,46.98,A,25,13
-4.73,-22.32,50.38,A,46,18
-4.13,-31.12,56.59,A,79,31

$$$$
Molecule
  SciTegic05072616053D

 72 76  0  0  0  0            999 V2000
    1.3820  -26.1196   45.6804 C   0  0  0  1  0  0
    0.8573  -25.0408   46.5712 C   0  0  0  1  0  0
    1.3223  -23.7178   46.4373 C   0  0  0  1  0  0
    0.8609  -22.7167   47.2398 N   0  0  0  1  0  0
   -0.0696  -22.9863   48.1986 C   0  0  0  1  0  0
   -0.5813  -24.2924   48.3932 C   0  0  0  1  0  0
   -1.5239  -24.6275   49.3557 N   0  0  0  1  0  0
   -2.2259  -23.8219   50.2444 C   0  0  0  1  0  0
   -2.0033  -22.6362   50.3543 O   0  0  0  1  0  0
   -3.3221  -24.4986   51.0788 C   0  0  0  1  0  0
   -2.6862  -25.5921   51.9630 C   0  0  0  1  0  0
   -3.3519  -26.8257   52.1669 C   0  0  0  1  0  0
   -2.8078  -27.8436   52.9614 C   0  0  0  1  0  0
   -1.5605  -27.6640   53.5638 C   0  0  0  1  0  0
   -0.8698  -26.4623   53.3788 C   0  0  0  1  0  0
   -1.4118  -25.4159   52.6003 C   0  0  0  1  0  0
   -0.5735  -24.1595   52.4933 C   0  0  0  1  0  0
    0.6103  -24.3486   51.5263 C   0  0  0  1  0  0
   -0.0957  -23.6535   53.8696 C   0  0  0  1  0  0
   -4.3238  -24.9849   49.9444 C   0  0  0  1  0  0
   -5.8184  -24.8541   50.2848 C   0  0  0  1  0  0
   -6.0073  -25.2391   51.6954 N   0  0  0  1  0  0
   -6.5867  -26.4493   52.0624 C   0  0  0  1  0  0
   -6.2090  -27.6205   51.3667 C   0  0  0  1  0  0
   -6.6907  -28.8725   51.7530 C   0  0  0  1  0  0
   -7.5593  -28.9859   52.8499 C   0  0  0  1  0  0
   -7.9859  -30.3575   53.3166 C   0  0  0  1  0  0
   -7.1060  -30.9026   54.4435 C   0  0  0  1  0  0
   -7.6341  -31.3139   55.4512 O   0  0  0  1  0  0
   -5.7745  -30.9238   54.3065 O   0  0  0  1  0  0
   -8.5071  -31.3582   52.2971 C   0  0  0  1  0  0
   -9.4646  -30.7173   53.2733 C   0  0  0  1  0  0
   -8.0006  -27.8236   53.5122 C   0  0  0  1  0  0
   -7.5163  -26.5594   53.1227 C   0  0  0  1  0  0
   -5.3979  -24.2777   52.6572 C   0  0  0  1  0  0
   -4.1677  -23.5595   52.0119 C   0  0  0  1  0  0
   -0.1052  -25.3246   47.5553 C   0  0  0  1  0  0
    2.4625  -26.0977   45.8223 H   0  0
    1.1858  -25.7658   44.6683 H   0  0
    0.9538  -27.1037   45.8711 H   0  0
    2.0675  -23.4894   45.6753 H   0  0
   -0.4293  -22.1755   48.8321 H   0  0
   -1.7451  -25.6721   49.4243 H   0  0
   -4.3186  -26.9884   51.6904 H   0  0
   -3.3568  -28.7736   53.1090 H   0  0
   -1.1279  -28.4562   54.1748 H   0  0
    0.1067  -26.3305   53.8449 H   0  0
   -1.2221  -23.3877   52.0790 H   0  0
    0.2177  -24.6097   50.5436 H   0  0
    1.2284  -25.1694   51.8902 H   0  0
    1.2003  -23.4342   51.4635 H   0  0
    0.4895  -24.4441   54.3392 H   0  0
   -0.9741  -23.4552   54.4838 H   0  0
    0.5043  -22.7498   53.7624 H   0  0
   -4.1246  -24.4163   49.0360 H   0  0
   -4.1115  -26.0290   49.7144 H   0  0
   -6.1375  -23.8218   50.1414 H   0  0
   -6.4002  -25.5166   49.6439 H   0  0
   -5.5316  -27.5449   50.5161 H   0  0
   -6.3917  -29.7640   51.2017 H   0  0
   -5.5149  -29.9281   54.0974 H   0  0
   -8.2672  -32.3824   52.5827 H   0  0
   -8.5864  -30.9135   51.3051 H   0  0
  -10.0538  -29.9310   52.8014 H   0  0
   -9.7333  -31.3993   54.0800 H   0  0
   -8.7188  -27.9026   54.3283 H   0  0
   -7.8590  -25.6633   53.6400 H   0  0
   -6.1411  -23.5330   52.9422 H   0  0
   -5.0744  -24.8147   53.5489 H   0  0
   -3.5255  -23.1776   52.8055 H   0  0
   -4.5211  -22.7072   51.4315 H   0  0
   -0.4837  -26.3401   47.6716 H   0  0
  1  2  1  0
  2  3  2  0
  2 37  1  0
  3  4  1  0
  4  5  2  0
  5  6  1  0
  6  7  1  0
  6 37  2  0
  7  8  1  0
  8  9  2  0
  8 10  1  0
 10 11  1  0
 10 20  1  0
 10 36  1  0
 11 12  2  0
 11 16  1  0
 12 13  1  0
 13 14  2  0
 14 15  1  0
 15 16  2  0
 16 17  1  0
 17 18  1  0
 17 19  1  0
 20 21  1  0
 21 22  1  0
 22 23  1  0
 22 35  1  0
 23 24  2  0
 23 34  1  0
 24 25  1  0
 25 26  2  0
 26 27  1  0
 26 33  1  0
 27 28  1  0
 27 31  1  0
 27 32  1  0
 28 29  2  0
 28 30  1  0
 31 32  1  0
 33 34  2  0
 35 36  1  0
  1 38  1  0
  1 39  1  0
  1 40  1  0
  3 41  1  0
  5 42  1  0
  7 43  1  0
 12 44  1  0
 13 45  1  0
 14 46  1  0
 15 47  1  0
 17 48  1  0
 18 49  1  0
 18 50  1  0
 18 51  1  0
 19 52  1  0
 19 53  1  0
 19 54  1  0
 20 55  1  0
 20 56  1  0
 21 57  1  0
 21 58  1  0
 24 59  1  0
 25 60  1  0
 30 61  1  0
 31 62  1  0
 31 63  1  0
 32 64  1  0
 32 65  1  0
 33 66  1  0
 34 67  1  0
 35 68  1  0
 35 69  1  0
 36 70  1  0
 36 71  1  0
 37 72  1  0
M  END
> <Name>
Molecule

> <AbsoluteEnergy>
71.7071

> <Clean Energy>
210.679

> <ConfNumber>
34

> <MOL_NUMBER>
6

> <RelativeEnergy>
9.70125

> <POSE_NUMBER>
20

> <LibDockScore>
98.162

> <HotSpots>
1.87,-24.92,46.78,A,22,3
0.87,-24.32,52.78,A,63,18
-9.53,-30.12,52.78,A,62,31

$$$$
Molecule
  SciTegic05072616053D

 72 76  0  0  0  0            999 V2000
   -2.8256  -30.1301   46.9677 C   0  0  0  1  0  0
   -2.3918  -29.4187   48.2073 C   0  0  0  1  0  0
   -2.0952  -30.1332   49.3854 C   0  0  0  1  0  0
   -1.6914  -29.4973   50.5202 N   0  0  0  1  0  0
   -1.5688  -28.1398   50.5297 C   0  0  0  1  0  0
   -1.8720  -27.3507   49.3912 C   0  0  0  1  0  0
   -1.7952  -25.9611   49.3820 N   0  0  0  1  0  0
   -1.6741  -25.1377   50.4908 C   0  0  0  1  0  0
   -1.9439  -25.5573   51.5949 O   0  0  0  1  0  0
   -1.2279  -23.6736   50.3291 C   0  0  0  1  0  0
    0.2972  -23.6015   50.1677 C   0  0  0  1  0  0
    0.8445  -23.1750   48.9292 C   0  0  0  1  0  0
    2.2265  -23.1163   48.7123 C   0  0  0  1  0  0
    3.1086  -23.4829   49.7305 C   0  0  0  1  0  0
    2.6040  -23.8990   50.9657 C   0  0  0  1  0  0
    1.2150  -23.9547   51.2133 C   0  0  0  1  0  0
    0.8059  -24.4010   52.5992 C   0  0  0  1  0  0
    1.5439  -25.6829   53.0251 C   0  0  0  1  0  0
    0.9621  -23.2807   53.6460 C   0  0  0  1  0  0
   -2.0252  -23.0815   49.1050 C   0  0  0  1  0  0
   -3.5702  -23.1513   49.2274 C   0  0  0  1  0  0
   -3.9724  -23.3091   50.6538 N   0  0  0  1  0  0
   -4.8559  -24.2846   51.1177 C   0  0  0  1  0  0
   -5.2710  -25.3419   50.2712 C   0  0  0  1  0  0
   -6.0073  -26.4183   50.7761 C   0  0  0  1  0  0
   -6.3532  -26.4595   52.1365 C   0  0  0  1  0  0
   -7.0074  -27.6943   52.7024 C   0  0  0  1  0  0
   -5.9712  -28.7438   53.0956 C   0  0  0  1  0  0
   -5.8907  -29.0889   54.2507 O   0  0  0  1  0  0
   -5.1631  -29.2556   52.1619 O   0  0  0  1  0  0
   -8.2901  -27.5630   53.5099 C   0  0  0  1  0  0
   -8.3318  -28.1737   52.1291 C   0  0  0  1  0  0
   -6.0577  -25.3607   52.9607 C   0  0  0  1  0  0
   -5.3222  -24.2770   52.4523 C   0  0  0  1  0  0
   -3.2047  -22.4126   51.5615 C   0  0  0  1  0  0
   -1.6919  -22.7765   51.5359 C   0  0  0  1  0  0
   -2.2758  -28.0162   48.2136 C   0  0  0  1  0  0
   -3.6989  -30.7065   47.2730 H   0  0
   -2.0279  -30.8455   46.7679 H   0  0
   -3.0274  -29.4755   46.1198 H   0  0
   -2.1911  -31.2190   49.3885 H   0  0
   -1.2275  -27.6461   51.4396 H   0  0
   -1.8333  -25.4816   48.4262 H   0  0
    0.1695  -22.8849   48.1240 H   0  0
    2.6136  -22.7845   47.7489 H   0  0
    4.1850  -23.4448   49.5630 H   0  0
    3.2981  -24.1869   51.7553 H   0  0
   -0.2570  -24.6372   52.5498 H   0  0
    2.6162  -25.4879   53.0065 H   0  0
    1.3150  -26.4696   52.3063 H   0  0
    1.2347  -25.9865   54.0253 H   0  0
    0.3452  -22.4368   53.3372 H   0  0
    2.0059  -22.9669   53.6567 H   0  0
    0.6607  -23.6297   54.6337 H   0  0
   -1.7244  -23.6124   48.2018 H   0  0
   -1.7343  -22.0397   48.9703 H   0  0
   -4.0059  -22.2348   48.8296 H   0  0
   -3.9411  -24.0000   48.6528 H   0  0
   -5.0131  -25.3161   49.2125 H   0  0
   -6.3133  -27.2269   50.1124 H   0  0
   -4.6867  -28.4236   51.7336 H   0  0
   -8.6612  -26.5381   53.5076 H   0  0
   -8.3518  -28.3236   54.2882 H   0  0
   -8.4170  -29.2595   52.1721 H   0  0
   -8.7247  -27.4739   51.3915 H   0  0
   -6.3994  -25.3490   53.9957 H   0  0
   -5.1089  -23.4216   53.0934 H   0  0
   -3.5832  -22.5174   52.5783 H   0  0
   -3.3322  -21.3789   51.2400 H   0  0
   -1.1141  -21.8523   51.5253 H   0  0
   -1.4435  -23.2889   52.4653 H   0  0
   -2.4971  -27.4454   47.3118 H   0  0
  1  2  1  0
  2  3  2  0
  2 37  1  0
  3  4  1  0
  4  5  2  0
  5  6  1  0
  6  7  1  0
  6 37  2  0
  7  8  1  0
  8  9  2  0
  8 10  1  0
 10 11  1  0
 10 20  1  0
 10 36  1  0
 11 12  2  0
 11 16  1  0
 12 13  1  0
 13 14  2  0
 14 15  1  0
 15 16  2  0
 16 17  1  0
 17 18  1  0
 17 19  1  0
 20 21  1  0
 21 22  1  0
 22 23  1  0
 22 35  1  0
 23 24  2  0
 23 34  1  0
 24 25  1  0
 25 26  2  0
 26 27  1  0
 26 33  1  0
 27 28  1  0
 27 31  1  0
 27 32  1  0
 28 29  2  0
 28 30  1  0
 31 32  1  0
 33 34  2  0
 35 36  1  0
  1 38  1  0
  1 39  1  0
  1 40  1  0
  3 41  1  0
  5 42  1  0
  7 43  1  0
 12 44  1  0
 13 45  1  0
 14 46  1  0
 15 47  1  0
 17 48  1  0
 18 49  1  0
 18 50  1  0
 18 51  1  0
 19 52  1  0
 19 53  1  0
 19 54  1  0
 20 55  1  0
 20 56  1  0
 21 57  1  0
 21 58  1  0
 24 59  1  0
 25 60  1  0
 30 61  1  0
 31 62  1  0
 31 63  1  0
 32 64  1  0
 32 65  1  0
 33 66  1  0
 34 67  1  0
 35 68  1  0
 35 69  1  0
 36 70  1  0
 36 71  1  0
 37 72  1  0
M  END
> <Name>
Molecule

> <AbsoluteEnergy>
69.8912

> <Clean Energy>
210.679

> <ConfNumber>
25

> <MOL_NUMBER>
6

> <RelativeEnergy>
7.88539

> <POSE_NUMBER>
21

> <LibDockScore>
87.7279

> <HotSpots>
2.67,-22.92,49.98,A,39,14
0.47,-23.32,53.78,A,67,19
-5.93,-24.72,51.19,A,53,34

$$$$
Molecule
  SciTegic05072616053D

 70 74  0  0  0  0            999 V2000
    1.2367  -25.6852   46.8200 C   0  0  0  1  0  0
    0.5105  -24.5999   47.6337 C   0  0  0  1  0  0
    0.5890  -23.2298   46.9304 C   0  0  0  1  0  0
    1.0151  -24.5439   49.0589 C   0  0  0  1  0  0
    2.3978  -24.3076   49.2332 C   0  0  0  1  0  0
    2.9642  -24.2275   50.5102 C   0  0  0  1  0  0
    2.1571  -24.3925   51.6375 C   0  0  0  1  0  0
    0.7851  -24.6287   51.4871 C   0  0  0  1  0  0
    0.1733  -24.7106   50.2089 C   0  0  0  1  0  0
   -1.3431  -24.9586   50.0813 C   0  0  0  1  0  0
   -1.9671  -23.8574   49.1988 C   0  0  0  1  0  0
   -1.5601  -22.7256   49.3026 O   0  0  0  1  0  0
   -2.9729  -24.1483   48.2917 N   0  0  0  1  0  0
   -3.5694  -23.2682   47.2415 C   0  0  0  1  0  0
   -4.7885  -23.5726   46.6897 N   0  0  0  1  0  0
   -5.0832  -22.6180   45.7877 C   0  0  0  1  0  0
   -4.0364  -21.7101   45.7675 C   0  0  0  1  0  0
   -3.0923  -22.1072   46.6529 N   0  0  0  1  0  0
   -1.8225  -21.3852   46.8609 C   0  0  0  1  0  0
   -2.1119  -24.8506   51.4403 C   0  0  0  1  0  0
   -1.9706  -26.0979   52.3403 C   0  0  0  1  0  0
   -2.5609  -27.3033   51.6908 N   0  0  0  1  0  0
   -2.9720  -28.4109   52.4396 C   0  0  0  1  0  0
   -2.5320  -28.5904   53.7744 C   0  0  0  1  0  0
   -2.9747  -29.6834   54.5428 C   0  0  0  1  0  0
   -3.8667  -30.6194   53.9936 C   0  0  0  1  0  0
   -4.3847  -31.7665   54.8326 C   0  0  0  1  0  0
   -3.7749  -33.1148   54.4759 C   0  0  0  1  0  0
   -3.0704  -33.6737   55.2858 O   0  0  0  1  0  0
   -4.0303  -33.6631   53.2879 O   0  0  0  1  0  0
   -5.8402  -31.7491   55.2754 C   0  0  0  1  0  0
   -4.7481  -31.5018   56.2854 C   0  0  0  1  0  0
   -4.2830  -30.4753   52.6588 C   0  0  0  1  0  0
   -3.8459  -29.3805   51.8930 C   0  0  0  1  0  0
   -2.7002  -27.2381   50.2042 C   0  0  0  1  0  0
   -1.5668  -26.4218   49.5406 C   0  0  0  1  0  0
    2.2808  -25.3952   46.7024 H   0  0
    0.7737  -25.7538   45.8356 H   0  0
    1.1721  -26.6464   47.3300 H   0  0
   -0.5439  -24.8709   47.6865 H   0  0
    0.1303  -23.3148   45.9453 H   0  0
    1.6374  -22.9562   46.8121 H   0  0
    0.0705  -22.4729   47.5189 H   0  0
    3.0344  -24.1856   48.3569 H   0  0
    4.0313  -24.0370   50.6245 H   0  0
    2.5948  -24.3375   52.6342 H   0  0
    0.1689  -24.7533   52.3776 H   0  0
   -3.3775  -25.1371   48.3510 H   0  0
   -5.9866  -22.5679   45.1799 H   0  0
   -3.9820  -20.8203   45.1403 H   0  0
   -1.1044  -22.1880   46.6937 H   0  0
   -1.8411  -21.2521   47.9426 H   0  0
   -1.6383  -20.4762   46.2883 H   0  0
   -1.7438  -23.9812   51.9851 H   0  0
   -3.1694  -24.6839   51.2355 H   0  0
   -0.9144  -26.2796   52.5392 H   0  0
   -2.4780  -25.9176   53.2880 H   0  0
   -1.8402  -27.8712   54.2128 H   0  0
   -2.6241  -29.8040   55.5678 H   0  0
   -3.7320  -32.9382   52.5893 H   0  0
   -6.2449  -32.7577   55.3589 H   0  0
   -6.3355  -30.8232   54.9829 H   0  0
   -4.6610  -30.4439   56.5332 H   0  0
   -4.5693  -32.3785   56.9080 H   0  0
   -4.9481  -31.2162   52.2153 H   0  0
   -4.1853  -29.2768   50.8624 H   0  0
   -2.6915  -28.2510   49.8017 H   0  0
   -3.6587  -26.7824   49.9558 H   0  0
   -1.7648  -26.3675   48.4701 H   0  0
   -0.6353  -26.9772   49.6498 H   0  0
  1  2  1  0
  2  3  1  0
  2  4  1  0
  4  5  2  0
  4  9  1  0
  5  6  1  0
  6  7  2  0
  7  8  1  0
  8  9  2  0
  9 10  1  0
 10 11  1  0
 10 20  1  0
 10 36  1  0
 11 12  2  0
 11 13  1  0
 13 14  1  0
 14 15  2  0
 14 18  1  0
 15 16  1  0
 16 17  2  0
 17 18  1  0
 18 19  1  0
 20 21  1  0
 21 22  1  0
 22 23  1  0
 22 35  1  0
 23 24  2  0
 23 34  1  0
 24 25  1  0
 25 26  2  0
 26 27  1  0
 26 33  1  0
 27 28  1  0
 27 31  1  0
 27 32  1  0
 28 29  2  0
 28 30  1  0
 31 32  1  0
 33 34  2  0
 35 36  1  0
  1 37  1  0
  1 38  1  0
  1 39  1  0
  2 40  1  0
  3 41  1  0
  3 42  1  0
  3 43  1  0
  5 44  1  0
  6 45  1  0
  7 46  1  0
  8 47  1  0
 13 48  1  0
 16 49  1  0
 17 50  1  0
 19 51  1  0
 19 52  1  0
 19 53  1  0
 20 54  1  0
 20 55  1  0
 21 56  1  0
 21 57  1  0
 24 58  1  0
 25 59  1  0
 30 60  1  0
 31 61  1  0
 31 62  1  0
 32 63  1  0
 32 64  1  0
 33 65  1  0
 34 66  1  0
 35 67  1  0
 35 68  1  0
 36 69  1  0
 36 70  1  0
M  END
> <Name>
Molecule

> <AbsoluteEnergy>
49.5355

> <Clean Energy>
216.53

> <ConfNumber>
10

> <MOL_NUMBER>
7

> <RelativeEnergy>
5.76247

> <POSE_NUMBER>
1

> <LibDockScore>
151.4056

> <HotSpots>
-5.13,-22.92,46.19,A,18,16
-1.73,-21.72,46.78,A,24,19
-4.13,-31.12,56.59,A,79,32

$$$$
Molecule
  SciTegic05072616053D

 70 74  0  0  0  0            999 V2000
    1.6737  -25.5656   46.2888 C   0  0  0  1  0  0
    0.7723  -24.6801   47.1824 C   0  0  0  1  0  0
    0.6806  -23.2826   46.5374 C   0  0  0  1  0  0
    1.1589  -24.6099   48.6563 C   0  0  0  1  0  0
    2.5457  -24.5091   48.9433 C   0  0  0  1  0  0
    3.0314  -24.3822   50.2461 C   0  0  0  1  0  0
    2.1375  -24.3318   51.3102 C   0  0  0  1  0  0
    0.7660  -24.4372   51.0669 C   0  0  0  1  0  0
    0.2241  -24.6233   49.7636 C   0  0  0  1  0  0
   -1.3204  -24.7938   49.6693 C   0  0  0  1  0  0
   -1.8702  -23.6885   48.7413 C   0  0  0  1  0  0
   -1.3767  -22.5864   48.7688 O   0  0  0  1  0  0
   -2.9189  -23.9385   47.8811 N   0  0  0  1  0  0
   -3.5728  -23.0337   46.8938 C   0  0  0  1  0  0
   -4.8256  -23.3254   46.4306 N   0  0  0  1  0  0
   -5.1821  -22.3512   45.5759 C   0  0  0  1  0  0
   -4.1355  -21.4478   45.4946 C   0  0  0  1  0  0
   -3.1314  -21.8667   46.2977 N   0  0  0  1  0  0
   -1.8483  -21.1542   46.4340 C   0  0  0  1  0  0
   -1.7160  -26.2321   49.1683 C   0  0  0  1  0  0
   -3.0984  -26.8082   49.5300 C   0  0  0  1  0  0
   -3.3746  -26.6228   50.9702 N   0  0  0  1  0  0
   -3.5739  -27.6785   51.8566 C   0  0  0  1  0  0
   -3.6112  -29.0092   51.3843 C   0  0  0  1  0  0
   -3.7882  -30.0818   52.2708 C   0  0  0  1  0  0
   -3.9257  -29.8468   53.6491 C   0  0  0  1  0  0
   -4.0908  -31.0136   54.5968 C   0  0  0  1  0  0
   -3.5975  -30.7157   56.0078 C   0  0  0  1  0  0
   -2.5521  -30.1235   56.1546 O   0  0  0  1  0  0
   -4.3257  -31.1151   57.0499 O   0  0  0  1  0  0
   -3.8807  -32.4229   54.0646 C   0  0  0  1  0  0
   -5.2719  -31.9575   54.4148 C   0  0  0  1  0  0
   -3.9029  -28.5260   54.1316 C   0  0  0  1  0  0
   -3.7345  -27.4508   53.2425 C   0  0  0  1  0  0
   -3.3616  -25.2033   51.3802 C   0  0  0  1  0  0
   -1.9704  -24.6041   51.1018 C   0  0  0  1  0  0
    2.6722  -25.1340   46.2190 H   0  0
    1.2412  -25.6555   45.2923 H   0  0
    1.7472  -26.5579   46.7338 H   0  0
   -0.2061  -25.1592   47.2195 H   0  0
    0.2412  -23.3569   45.5426 H   0  0
    1.6723  -22.8353   46.4693 H   0  0
    0.0477  -22.6478   47.1575 H   0  0
    3.2564  -24.5316   48.1172 H   0  0
    4.1045  -24.3230   50.4280 H   0  0
    2.5052  -24.2106   52.3291 H   0  0
    0.0806  -24.3742   51.9121 H   0  0
   -3.3226  -24.9282   47.9298 H   0  0
   -6.1292  -22.2840   45.0405 H   0  0
   -4.1232  -20.5458   44.8828 H   0  0
   -1.1466  -21.9561   46.2045 H   0  0
   -1.7943  -21.0409   47.5167 H   0  0
   -1.6984  -20.2354   45.8671 H   0  0
   -1.6224  -26.2472   48.0824 H   0  0
   -0.9601  -26.9325   49.5236 H   0  0
   -3.8658  -26.2983   48.9476 H   0  0
   -3.1206  -27.8720   49.2933 H   0  0
   -3.5011  -29.2050   50.3177 H   0  0
   -3.8192  -31.1021   51.8886 H   0  0
   -4.4392  -32.1509   56.9208 H   0  0
   -3.4724  -33.0829   54.8300 H   0  0
   -3.7152  -32.4225   52.9872 H   0  0
   -5.8492  -31.7083   53.5244 H   0  0
   -5.6057  -32.3673   55.3681 H   0  0
   -4.0162  -28.3356   55.1988 H   0  0
   -3.7276  -26.4304   53.6256 H   0  0
   -3.5821  -25.1292   52.4451 H   0  0
   -4.1135  -24.6541   50.8135 H   0  0
   -2.0188  -23.5358   51.3128 H   0  0
   -1.2790  -25.0067   51.8421 H   0  0
  1  2  1  0
  2  3  1  0
  2  4  1  0
  4  5  2  0
  4  9  1  0
  5  6  1  0
  6  7  2  0
  7  8  1  0
  8  9  2  0
  9 10  1  0
 10 11  1  0
 10 20  1  0
 10 36  1  0
 11 12  2  0
 11 13  1  0
 13 14  1  0
 14 15  2  0
 14 18  1  0
 15 16  1  0
 16 17  2  0
 17 18  1  0
 18 19  1  0
 20 21  1  0
 21 22  1  0
 22 23  1  0
 22 35  1  0
 23 24  2  0
 23 34  1  0
 24 25  1  0
 25 26  2  0
 26 27  1  0
 26 33  1  0
 27 28  1  0
 27 31  1  0
 27 32  1  0
 28 29  2  0
 28 30  1  0
 31 32  1  0
 33 34  2  0
 35 36  1  0
  1 37  1  0
  1 38  1  0
  1 39  1  0
  2 40  1  0
  3 41  1  0
  3 42  1  0
  3 43  1  0
  5 44  1  0
  6 45  1  0
  7 46  1  0
  8 47  1  0
 13 48  1  0
 16 49  1  0
 17 50  1  0
 19 51  1  0
 19 52  1  0
 19 53  1  0
 20 54  1  0
 20 55  1  0
 21 56  1  0
 21 57  1  0
 24 58  1  0
 25 59  1  0
 30 60  1  0
 31 61  1  0
 31 62  1  0
 32 63  1  0
 32 64  1  0
 33 65  1  0
 34 66  1  0
 35 67  1  0
 35 68  1  0
 36 69  1  0
 36 70  1  0
M  END
> <Name>
Molecule

> <AbsoluteEnergy>
61.7514

> <Clean Energy>
216.53

> <ConfNumber>
77

> <MOL_NUMBER>
7

> <RelativeEnergy>
17.9784

> <POSE_NUMBER>
2

> <LibDockScore>
142.3425

> <HotSpots>
0.27,-24.92,46.38,A,19,3
-5.93,-22.12,45.59,A,14,16
-2.53,-21.12,45.98,A,16,19

$$$$
Molecule
  SciTegic05072616053D

 70 74  0  0  0  0            999 V2000
   -3.8407  -22.1788   50.9342 C   0  0  0  1  0  0
   -4.9808  -22.6224   49.9979 C   0  0  0  1  0  0
   -6.2286  -23.1212   50.7411 C   0  0  0  1  0  0
   -4.5312  -23.3840   48.7476 C   0  0  0  1  0  0
   -5.0557  -22.8534   47.5405 C   0  0  0  1  0  0
   -4.7436  -23.3908   46.2901 C   0  0  0  1  0  0
   -3.8803  -24.4779   46.2086 C   0  0  0  1  0  0
   -3.3438  -25.0278   47.3756 C   0  0  0  1  0  0
   -3.6526  -24.5322   48.6699 C   0  0  0  1  0  0
   -3.0245  -25.2618   49.8722 C   0  0  0  1  0  0
   -1.6950  -24.6210   50.2907 C   0  0  0  1  0  0
   -1.5524  -24.1923   51.4123 O   0  0  0  1  0  0
   -0.6460  -24.5585   49.3886 N   0  0  0  1  0  0
    0.7875  -24.4731   49.7638 C   0  0  0  1  0  0
    1.2835  -24.3645   51.0329 N   0  0  0  1  0  0
    2.6257  -24.3163   50.9308 C   0  0  0  1  0  0
    2.9610  -24.3989   49.5863 C   0  0  0  1  0  0
    1.8214  -24.4973   48.8663 N   0  0  0  1  0  0
    1.7227  -24.6061   47.3999 C   0  0  0  1  0  0
   -2.5690  -26.7578   49.5864 C   0  0  0  1  0  0
   -3.6118  -27.8974   49.6983 C   0  0  0  1  0  0
   -4.4150  -27.7257   50.9276 N   0  0  0  1  0  0
   -4.4712  -28.6680   51.9535 C   0  0  0  1  0  0
   -5.4524  -28.5727   52.9696 C   0  0  0  1  0  0
   -5.4777  -29.4880   54.0329 C   0  0  0  1  0  0
   -4.5181  -30.5116   54.1084 C   0  0  0  1  0  0
   -4.5063  -31.4543   55.2876 C   0  0  0  1  0  0
   -3.8347  -30.8351   56.5064 C   0  0  0  1  0  0
   -4.3231  -30.9969   57.6009 O   0  0  0  1  0  0
   -2.7221  -30.1196   56.3355 O   0  0  0  1  0  0
   -4.3381  -32.9488   55.0602 C   0  0  0  1  0  0
   -5.6790  -32.4019   55.4843 C   0  0  0  1  0  0
   -3.5608  -30.6402   53.0882 C   0  0  0  1  0  0
   -3.5429  -29.7329   52.0162 C   0  0  0  1  0  0
   -5.1030  -26.4176   50.9713 C   0  0  0  1  0  0
   -4.0532  -25.3016   51.0558 C   0  0  0  1  0  0
   -3.5778  -23.0306   51.5615 H   0  0
   -4.2279  -21.3857   51.5738 H   0  0
   -2.9751  -21.8324   50.3695 H   0  0
   -5.3571  -21.7131   49.5292 H   0  0
   -6.5758  -22.3123   51.3840 H   0  0
   -5.9256  -23.9571   51.3716 H   0  0
   -7.0106  -23.4251   50.0452 H   0  0
   -5.7263  -21.9956   47.5912 H   0  0
   -5.1733  -22.9616   45.3850 H   0  0
   -3.6229  -24.8998   45.2371 H   0  0
   -2.6599  -25.8721   47.2889 H   0  0
   -0.8863  -24.5728   48.3460 H   0  0
    3.3272  -24.2278   51.7604 H   0  0
    3.9723  -24.3865   49.1799 H   0  0
    1.0569  -23.7788   47.1544 H   0  0
    1.1239  -25.5087   47.2782 H   0  0
    2.6570  -24.6101   46.8385 H   0  0
   -2.1395  -26.7946   48.5852 H   0  0
   -1.7426  -26.9940   50.2567 H   0  0
   -4.2701  -27.8730   48.8299 H   0  0
   -3.0980  -28.8581   49.7335 H   0  0
   -6.1975  -27.7784   52.9254 H   0  0
   -6.2445  -29.4046   54.8031 H   0  0
   -2.9816  -29.3687   55.6490 H   0  0
   -3.8162  -33.4237   55.8910 H   0  0
   -4.3202  -33.1916   53.9977 H   0  0
   -6.3767  -32.3542   54.6482 H   0  0
   -5.8721  -32.5846   56.5414 H   0  0
   -2.8292  -31.4472   53.1288 H   0  0
   -2.8046  -29.8510   51.2231 H   0  0
   -5.7508  -26.3744   51.8469 H   0  0
   -5.6989  -26.2887   50.0677 H   0  0
   -4.5695  -24.3428   51.1030 H   0  0
   -3.5046  -25.4114   51.9913 H   0  0
  1  2  1  0
  2  3  1  0
  2  4  1  0
  4  5  2  0
  4  9  1  0
  5  6  1  0
  6  7  2  0
  7  8  1  0
  8  9  2  0
  9 10  1  0
 10 11  1  0
 10 20  1  0
 10 36  1  0
 11 12  2  0
 11 13  1  0
 13 14  1  0
 14 15  2  0
 14 18  1  0
 15 16  1  0
 16 17  2  0
 17 18  1  0
 18 19  1  0
 20 21  1  0
 21 22  1  0
 22 23  1  0
 22 35  1  0
 23 24  2  0
 23 34  1  0
 24 25  1  0
 25 26  2  0
 26 27  1  0
 26 33  1  0
 27 28  1  0
 27 31  1  0
 27 32  1  0
 28 29  2  0
 28 30  1  0
 31 32  1  0
 33 34  2  0
 35 36  1  0
  1 37  1  0
  1 38  1  0
  1 39  1  0
  2 40  1  0
  3 41  1  0
  3 42  1  0
  3 43  1  0
  5 44  1  0
  6 45  1  0
  7 46  1  0
  8 47  1  0
 13 48  1  0
 16 49  1  0
 17 50  1  0
 19 51  1  0
 19 52  1  0
 19 53  1  0
 20 54  1  0
 20 55  1  0
 21 56  1  0
 21 57  1  0
 24 58  1  0
 25 59  1  0
 30 60  1  0
 31 61  1  0
 31 62  1  0
 32 63  1  0
 32 64  1  0
 33 65  1  0
 34 66  1  0
 35 67  1  0
 35 68  1  0
 36 69  1  0
 36 70  1  0
M  END
> <Name>
Molecule

> <AbsoluteEnergy>
57.7592

> <Clean Energy>
216.53

> <ConfNumber>
45

> <MOL_NUMBER>
7

> <RelativeEnergy>
13.9862

> <POSE_NUMBER>
3

> <LibDockScore>
139.4529

> <HotSpots>
3.07,-24.52,50.38,A,43,17
1.87,-25.32,48.38,A,30,19
-4.33,-31.92,57.78,P,73,29

$$$$
Molecule
  SciTegic05072616053D

 70 74  0  0  0  0            999 V2000
    1.5261  -25.5326   46.0770 C   0  0  0  1  0  0
    0.6090  -24.7584   47.0557 C   0  0  0  1  0  0
    0.2188  -23.4228   46.3917 C   0  0  0  1  0  0
    1.1537  -24.5700   48.4671 C   0  0  0  1  0  0
    2.5500  -24.3354   48.5771 C   0  0  0  1  0  0
    3.1770  -24.1287   49.8055 C   0  0  0  1  0  0
    2.4203  -24.1285   50.9718 C   0  0  0  1  0  0
    1.0437  -24.3485   50.9019 C   0  0  0  1  0  0
    0.3599  -24.6027   49.6780 C   0  0  0  1  0  0
   -1.1751  -24.8554   49.7752 C   0  0  0  1  0  0
   -1.8887  -23.7668   48.9433 C   0  0  0  1  0  0
   -1.6533  -22.5997   49.1533 O   0  0  0  1  0  0
   -2.8016  -24.0975   47.9656 N   0  0  0  1  0  0
   -3.5083  -23.2050   47.0047 C   0  0  0  1  0  0
   -4.7126  -23.5835   46.4810 N   0  0  0  1  0  0
   -5.1342  -22.5943   45.6723 C   0  0  0  1  0  0
   -4.1744  -21.5944   45.6791 C   0  0  0  1  0  0
   -3.1548  -21.9734   46.4864 N   0  0  0  1  0  0
   -1.9300  -21.1781   46.6881 C   0  0  0  1  0  0
   -1.5679  -26.2991   49.3083 C   0  0  0  1  0  0
   -2.9145  -26.9023   49.7631 C   0  0  0  1  0  0
   -3.1438  -26.7458   51.2227 N   0  0  0  1  0  0
   -3.4974  -27.8051   52.0612 C   0  0  0  1  0  0
   -3.8887  -27.5636   53.4001 C   0  0  0  1  0  0
   -4.2300  -28.6223   54.2565 C   0  0  0  1  0  0
   -4.1999  -29.9480   53.7909 C   0  0  0  1  0  0
   -4.5543  -31.0922   54.7166 C   0  0  0  1  0  0
   -3.8976  -30.9916   56.0955 C   0  0  0  1  0  0
   -4.3256  -31.6723   56.9985 O   0  0  0  1  0  0
   -2.8661  -30.1643   56.2882 O   0  0  0  1  0  0
   -4.7391  -32.4770   54.1124 C   0  0  0  1  0  0
   -5.9397  -31.7181   54.6249 C   0  0  0  1  0  0
   -3.8301  -30.2026   52.4583 C   0  0  0  1  0  0
   -3.4756  -29.1441   51.6051 C   0  0  0  1  0  0
   -2.9810  -25.3580   51.7198 C   0  0  0  1  0  0
   -1.6365  -24.7499   51.2822 C   0  0  0  1  0  0
    2.4273  -24.9552   45.8708 H   0  0
    0.9964  -25.7336   45.1458 H   0  0
    1.8102  -26.4805   46.5341 H   0  0
   -0.2712  -25.3776   47.2287 H   0  0
   -0.3202  -23.6088   45.4627 H   0  0
    1.1107  -22.8303   46.1877 H   0  0
   -0.4277  -22.8666   47.0705 H   0  0
    3.1530  -24.3162   47.6693 H   0  0
    4.2542  -23.9682   49.8510 H   0  0
    2.8995  -23.9574   51.9357 H   0  0
    0.4655  -24.3248   51.8256 H   0  0
   -3.0350  -25.1386   47.8855 H   0  0
   -6.0678  -22.5815   45.1099 H   0  0
   -4.2308  -20.6570   45.1257 H   0  0
   -1.1660  -21.9078   46.4199 H   0  0
   -1.8961  -21.1274   47.7764 H   0  0
   -1.8449  -20.2170   46.1810 H   0  0
   -1.5446  -26.3180   48.2187 H   0  0
   -0.7755  -26.9807   49.6176 H   0  0
   -3.7247  -26.4128   49.2226 H   0  0
   -2.9331  -27.9632   49.5135 H   0  0
   -3.9256  -26.5396   53.7719 H   0  0
   -4.5195  -28.4153   55.2868 H   0  0
   -3.2236  -29.2229   55.9908 H   0  0
   -4.4322  -33.2601   54.8057 H   0  0
   -4.6798  -32.4491   53.0244 H   0  0
   -6.5205  -31.2860   53.8100 H   0  0
   -6.2718  -32.0958   55.5919 H   0  0
   -3.8184  -31.2267   52.0852 H   0  0
   -3.1798  -29.3575   50.5779 H   0  0
   -3.0352  -25.3588   52.8085 H   0  0
   -3.7939  -24.7427   51.3342 H   0  0
   -1.6448  -23.6953   51.5577 H   0  0
   -0.8561  -25.1902   51.9028 H   0  0
  1  2  1  0
  2  3  1  0
  2  4  1  0
  4  5  2  0
  4  9  1  0
  5  6  1  0
  6  7  2  0
  7  8  1  0
  8  9  2  0
  9 10  1  0
 10 11  1  0
 10 20  1  0
 10 36  1  0
 11 12  2  0
 11 13  1  0
 13 14  1  0
 14 15  2  0
 14 18  1  0
 15 16  1  0
 16 17  2  0
 17 18  1  0
 18 19  1  0
 20 21  1  0
 21 22  1  0
 22 23  1  0
 22 35  1  0
 23 24  2  0
 23 34  1  0
 24 25  1  0
 25 26  2  0
 26 27  1  0
 26 33  1  0
 27 28  1  0
 27 31  1  0
 27 32  1  0
 28 29  2  0
 28 30  1  0
 31 32  1  0
 33 34  2  0
 35 36  1  0
  1 37  1  0
  1 38  1  0
  1 39  1  0
  2 40  1  0
  3 41  1  0
  3 42  1  0
  3 43  1  0
  5 44  1  0
  6 45  1  0
  7 46  1  0
  8 47  1  0
 13 48  1  0
 16 49  1  0
 17 50  1  0
 19 51  1  0
 19 52  1  0
 19 53  1  0
 20 54  1  0
 20 55  1  0
 21 56  1  0
 21 57  1  0
 24 58  1  0
 25 59  1  0
 30 60  1  0
 31 61  1  0
 31 62  1  0
 32 63  1  0
 32 64  1  0
 33 65  1  0
 34 66  1  0
 35 67  1  0
 35 68  1  0
 36 69  1  0
 36 70  1  0
M  END
> <Name>
Molecule

> <AbsoluteEnergy>
62.9585

> <Clean Energy>
216.53

> <ConfNumber>
86

> <MOL_NUMBER>
7

> <RelativeEnergy>
19.1855

> <POSE_NUMBER>
4

> <LibDockScore>
139.0816

> <HotSpots>
0.27,-24.92,46.38,A,19,3
2.67,-23.92,48.98,A,32,5
-3.33,-32.52,56.19,P,67,29

$$$$
Molecule
  SciTegic05072616053D

 70 74  0  0  0  0            999 V2000
   -4.5048  -23.5785   46.7400 C   0  0  0  1  0  0
   -3.4603  -24.6688   47.0471 C   0  0  0  1  0  0
   -3.3982  -25.7195   45.9206 C   0  0  0  1  0  0
   -2.1002  -24.0747   47.3494 C   0  0  0  1  0  0
   -1.5907  -23.1449   46.4170 C   0  0  0  1  0  0
   -0.3445  -22.5376   46.6046 C   0  0  0  1  0  0
    0.4170  -22.8519   47.7336 C   0  0  0  1  0  0
   -0.0680  -23.7720   48.6734 C   0  0  0  1  0  0
   -1.3277  -24.4038   48.5104 C   0  0  0  1  0  0
   -1.8273  -25.4020   49.5597 C   0  0  0  1  0  0
   -3.2924  -25.1348   49.9341 C   0  0  0  1  0  0
   -4.0590  -26.0656   49.9799 O   0  0  0  1  0  0
   -3.7295  -23.8504   50.2089 N   0  0  0  1  0  0
   -5.1375  -23.3981   50.3680 C   0  0  0  1  0  0
   -5.5093  -22.1195   50.0484 N   0  0  0  1  0  0
   -6.8318  -22.0172   50.2719 C   0  0  0  1  0  0
   -7.2848  -23.2390   50.7464 C   0  0  0  1  0  0
   -6.2381  -24.0908   50.8350 N   0  0  0  1  0  0
   -6.3372  -25.4639   51.3717 C   0  0  0  1  0  0
   -1.0541  -25.3748   50.9109 C   0  0  0  1  0  0
   -1.5668  -26.3885   51.9648 C   0  0  0  1  0  0
   -2.0873  -27.6860   51.4186 N   0  0  0  1  0  0
   -2.6424  -28.6294   52.2794 C   0  0  0  1  0  0
   -3.5624  -29.5854   51.7922 C   0  0  0  1  0  0
   -4.0917  -30.5700   52.6389 C   0  0  0  1  0  0
   -3.7085  -30.6301   53.9920 C   0  0  0  1  0  0
   -4.2512  -31.7428   54.8719 C   0  0  0  1  0  0
   -3.8394  -33.1464   54.4168 C   0  0  0  1  0  0
   -4.0494  -33.4701   53.2687 O   0  0  0  1  0  0
   -3.2691  -33.9887   55.2855 O   0  0  0  1  0  0
   -4.4995  -31.4882   56.3511 C   0  0  0  1  0  0
   -5.6683  -31.5866   55.4029 C   0  0  0  1  0  0
   -2.8238  -29.6582   54.4986 C   0  0  0  1  0  0
   -2.3024  -28.6611   53.6510 C   0  0  0  1  0  0
   -2.0528  -27.9800   49.9477 C   0  0  0  1  0  0
   -1.5293  -26.8420   49.0531 C   0  0  0  1  0  0
   -5.4805  -24.0513   46.6282 H   0  0
   -4.2365  -23.0921   45.8021 H   0  0
   -4.5352  -22.8451   47.5458 H   0  0
   -3.7824  -25.1863   47.9507 H   0  0
   -3.1380  -25.2174   44.9888 H   0  0
   -4.3821  -26.1766   45.8148 H   0  0
   -2.6552  -26.4820   46.1542 H   0  0
   -2.1795  -22.8955   45.5343 H   0  0
    0.0311  -21.8221   45.8731 H   0  0
    1.3887  -22.3813   47.8834 H   0  0
    0.5365  -24.0074   49.5493 H   0  0
   -2.9726  -23.1021   50.3187 H   0  0
   -7.4414  -21.1285   50.1085 H   0  0
   -8.3169  -23.4746   51.0058 H   0  0
   -5.5802  -25.4323   52.1553 H   0  0
   -5.8775  -26.0329   50.5636 H   0  0
   -7.3138  -25.8274   51.6913 H   0  0
   -1.1174  -24.3713   51.3318 H   0  0
   -0.0007  -25.5760   50.7160 H   0  0
   -0.7563  -26.6071   52.6600 H   0  0
   -2.3589  -25.9165   52.5461 H   0  0
   -3.8643  -29.5570   50.7452 H   0  0
   -4.8053  -31.2943   52.2462 H   0  0
   -3.9528  -34.0546   56.0797 H   0  0
   -4.2856  -30.4539   56.6204 H   0  0
   -4.3798  -32.3985   56.9386 H   0  0
   -6.1731  -32.5492   55.4848 H   0  0
   -6.0778  -30.6048   55.1653 H   0  0
   -2.5413  -29.6777   55.5512 H   0  0
   -1.6295  -27.9059   54.0573 H   0  0
   -1.4328  -28.8617   49.7856 H   0  0
   -3.0598  -28.2412   49.6224 H   0  0
   -1.9604  -26.9569   48.0586 H   0  0
   -0.4510  -26.9566   48.9427 H   0  0
  1  2  1  0
  2  3  1  0
  2  4  1  0
  4  5  2  0
  4  9  1  0
  5  6  1  0
  6  7  2  0
  7  8  1  0
  8  9  2  0
  9 10  1  0
 10 11  1  0
 10 20  1  0
 10 36  1  0
 11 12  2  0
 11 13  1  0
 13 14  1  0
 14 15  2  0
 14 18  1  0
 15 16  1  0
 16 17  2  0
 17 18  1  0
 18 19  1  0
 20 21  1  0
 21 22  1  0
 22 23  1  0
 22 35  1  0
 23 24  2  0
 23 34  1  0
 24 25  1  0
 25 26  2  0
 26 27  1  0
 26 33  1  0
 27 28  1  0
 27 31  1  0
 27 32  1  0
 28 29  2  0
 28 30  1  0
 31 32  1  0
 33 34  2  0
 35 36  1  0
  1 37  1  0
  1 38  1  0
  1 39  1  0
  2 40  1  0
  3 41  1  0
  3 42  1  0
  3 43  1  0
  5 44  1  0
  6 45  1  0
  7 46  1  0
  8 47  1  0
 13 48  1  0
 16 49  1  0
 17 50  1  0
 19 51  1  0
 19 52  1  0
 19 53  1  0
 20 54  1  0
 20 55  1  0
 21 56  1  0
 21 57  1  0
 24 58  1  0
 25 59  1  0
 30 60  1  0
 31 61  1  0
 31 62  1  0
 32 63  1  0
 32 64  1  0
 33 65  1  0
 34 66  1  0
 35 67  1  0
 35 68  1  0
 36 69  1  0
 36 70  1  0
M  END
> <Name>
Molecule

> <AbsoluteEnergy>
52.9531

> <Clean Energy>
216.53

> <ConfNumber>
19

> <MOL_NUMBER>
7

> <RelativeEnergy>
9.1801

> <POSE_NUMBER>
5

> <LibDockScore>
134.491

> <HotSpots>
-4.53,-24.52,46.19,A,17,1
0.27,-22.52,46.78,A,23,7
-3.33,-32.52,56.19,P,67,30

$$$$
Molecule
  SciTegic05072616053D

 70 74  0  0  0  0            999 V2000
   -6.3495  -23.8644   50.9541 C   0  0  0  1  0  0
   -4.9882  -23.4281   50.3584 C   0  0  0  1  0  0
   -4.9070  -21.8900   50.4248 C   0  0  0  1  0  0
   -4.6677  -23.9691   48.9697 C   0  0  0  1  0  0
   -5.5034  -23.5228   47.9117 C   0  0  0  1  0  0
   -5.3120  -23.9244   46.5900 C   0  0  0  1  0  0
   -4.2581  -24.7751   46.2760 C   0  0  0  1  0  0
   -3.4114  -25.2284   47.2888 C   0  0  0  1  0  0
   -3.5852  -24.8798   48.6593 C   0  0  0  1  0  0
   -2.5690  -25.4924   49.6700 C   0  0  0  1  0  0
   -1.2203  -24.7612   49.4887 C   0  0  0  1  0  0
   -1.0415  -24.0628   48.5182 O   0  0  0  1  0  0
   -0.2048  -24.8948   50.4104 N   0  0  0  1  0  0
    1.2401  -24.5620   50.2657 C   0  0  0  1  0  0
    2.0660  -24.6208   51.3530 N   0  0  0  1  0  0
    3.3059  -24.2997   50.9408 C   0  0  0  1  0  0
    3.2497  -24.0218   49.5841 C   0  0  0  1  0  0
    1.9701  -24.1627   49.1621 N   0  0  0  1  0  0
    1.5274  -23.8901   47.7827 C   0  0  0  1  0  0
   -3.0832  -25.4122   51.1485 C   0  0  0  1  0  0
   -2.4828  -26.3571   52.2118 C   0  0  0  1  0  0
   -2.4313  -27.7695   51.7535 N   0  0  0  1  0  0
   -2.9379  -28.8364   52.4987 C   0  0  0  1  0  0
   -3.5672  -29.9291   51.8554 C   0  0  0  1  0  0
   -4.0948  -30.9988   52.5959 C   0  0  0  1  0  0
   -3.9949  -31.0073   53.9977 C   0  0  0  1  0  0
   -4.5752  -32.1532   54.7990 C   0  0  0  1  0  0
   -5.7817  -31.7555   55.6528 C   0  0  0  1  0  0
   -6.4207  -32.6222   56.2026 O   0  0  0  1  0  0
   -6.1141  -30.4681   55.7853 O   0  0  0  1  0  0
   -3.6201  -33.1999   55.3550 C   0  0  0  1  0  0
   -4.5416  -33.5589   54.2139 C   0  0  0  1  0  0
   -3.3570  -29.9374   54.6501 C   0  0  0  1  0  0
   -2.8409  -28.8605   53.9099 C   0  0  0  1  0  0
   -1.7783  -27.9591   50.4354 C   0  0  0  1  0  0
   -2.3766  -27.0300   49.3640 C   0  0  0  1  0  0
   -7.1673  -23.4345   50.3758 H   0  0
   -6.4247  -23.5435   51.9931 H   0  0
   -6.4208  -24.9513   50.9135 H   0  0
   -4.2094  -23.8845   50.9693 H   0  0
   -4.9719  -21.5550   51.4600 H   0  0
   -5.7146  -21.4460   49.8427 H   0  0
   -3.9525  -21.5685   50.0082 H   0  0
   -6.3234  -22.8423   48.1408 H   0  0
   -5.9848  -23.5734   45.8076 H   0  0
   -4.0939  -25.0864   45.2444 H   0  0
   -2.5793  -25.8787   47.0190 H   0  0
   -0.4938  -25.2923   51.3609 H   0  0
    4.1988  -24.2643   51.5650 H   0  0
    4.0961  -23.7367   48.9593 H   0  0
    0.7326  -23.1662   47.9625 H   0  0
    1.0089  -24.8195   47.5471 H   0  0
    2.2722  -23.5813   47.0492 H   0  0
   -2.9470  -24.3883   51.4966 H   0  0
   -4.1626  -25.5639   51.1387 H   0  0
   -1.4728  -26.0258   52.4531 H   0  0
   -3.0837  -26.3010   53.1195 H   0  0
   -3.6433  -29.9401   50.7681 H   0  0
   -4.5839  -31.8260   52.0815 H   0  0
   -6.2418  -30.1257   54.8009 H   0  0
   -3.9768  -33.6038   56.3025 H   0  0
   -2.5996  -33.0323   55.0107 H   0  0
   -4.0121  -33.5829   53.2615 H   0  0
   -5.3901  -34.1529   54.5534 H   0  0
   -3.2624  -29.9435   55.7360 H   0  0
   -2.3593  -28.0324   54.4299 H   0  0
   -1.9027  -28.9949   50.1197 H   0  0
   -0.7123  -27.7533   50.5319 H   0  0
   -1.7627  -27.1197   48.4678 H   0  0
   -3.3455  -27.4377   49.0755 H   0  0
  1  2  1  0
  2  3  1  0
  2  4  1  0
  4  5  2  0
  4  9  1  0
  5  6  1  0
  6  7  2  0
  7  8  1  0
  8  9  2  0
  9 10  1  0
 10 11  1  0
 10 20  1  0
 10 36  1  0
 11 12  2  0
 11 13  1  0
 13 14  1  0
 14 15  2  0
 14 18  1  0
 15 16  1  0
 16 17  2  0
 17 18  1  0
 18 19  1  0
 20 21  1  0
 21 22  1  0
 22 23  1  0
 22 35  1  0
 23 24  2  0
 23 34  1  0
 24 25  1  0
 25 26  2  0
 26 27  1  0
 26 33  1  0
 27 28  1  0
 27 31  1  0
 27 32  1  0
 28 29  2  0
 28 30  1  0
 31 32  1  0
 33 34  2  0
 35 36  1  0
  1 37  1  0
  1 38  1  0
  1 39  1  0
  2 40  1  0
  3 41  1  0
  3 42  1  0
  3 43  1  0
  5 44  1  0
  6 45  1  0
  7 46  1  0
  8 47  1  0
 13 48  1  0
 16 49  1  0
 17 50  1  0
 19 51  1  0
 19 52  1  0
 19 53  1  0
 20 54  1  0
 20 55  1  0
 21 56  1  0
 21 57  1  0
 24 58  1  0
 25 59  1  0
 30 60  1  0
 31 61  1  0
 31 62  1  0
 32 63  1  0
 32 64  1  0
 33 65  1  0
 34 66  1  0
 35 67  1  0
 35 68  1  0
 36 69  1  0
 36 70  1  0
M  END
> <Name>
Molecule

> <AbsoluteEnergy>
62.9585

> <Clean Energy>
216.53

> <ConfNumber>
86

> <MOL_NUMBER>
7

> <RelativeEnergy>
19.1855

> <POSE_NUMBER>
6

> <LibDockScore>
133.1533

> <HotSpots>
-3.33,-21.92,50.38,A,47,3
-4.53,-24.52,46.19,A,17,7
-4.33,-32.92,55.19,A,75,32

$$$$
Molecule
  SciTegic05072616053D

 70 74  0  0  0  0            999 V2000
    1.0904  -25.6355   46.5728 C   0  0  0  1  0  0
    0.3236  -24.6424   47.4670 C   0  0  0  1  0  0
    0.0345  -23.3042   46.7639 C   0  0  0  1  0  0
    0.9889  -24.4492   48.8100 C   0  0  0  1  0  0
    2.3103  -23.9499   48.8058 C   0  0  0  1  0  0
    3.0196  -23.7650   49.9980 C   0  0  0  1  0  0
    2.4159  -24.0697   51.2192 C   0  0  0  1  0  0
    1.0971  -24.5366   51.2460 C   0  0  0  1  0  0
    0.3485  -24.7389   50.0574 C   0  0  0  1  0  0
   -1.0943  -25.2622   50.1336 C   0  0  0  1  0  0
   -2.0402  -24.2864   49.4144 C   0  0  0  1  0  0
   -2.1063  -23.1485   49.8241 O   0  0  0  1  0  0
   -2.8043  -24.6473   48.3231 N   0  0  0  1  0  0
   -3.8344  -23.7765   47.7044 C   0  0  0  1  0  0
   -4.0394  -23.7006   46.3551 N   0  0  0  1  0  0
   -4.9586  -22.7365   46.1473 C   0  0  0  1  0  0
   -5.3704  -22.2559   47.3810 C   0  0  0  1  0  0
   -4.7242  -22.9440   48.3492 N   0  0  0  1  0  0
   -4.9904  -22.8235   49.7971 C   0  0  0  1  0  0
   -1.0912  -26.7678   49.6747 C   0  0  0  1  0  0
   -2.3651  -27.5980   49.9512 C   0  0  0  1  0  0
   -2.9140  -27.3559   51.3100 N   0  0  0  1  0  0
   -3.2872  -28.3866   52.1583 C   0  0  0  1  0  0
   -3.6488  -28.1051   53.4939 C   0  0  0  1  0  0
   -4.0754  -29.1347   54.3452 C   0  0  0  1  0  0
   -4.1542  -30.4558   53.8723 C   0  0  0  1  0  0
   -4.6784  -31.5544   54.7684 C   0  0  0  1  0  0
   -4.0380  -32.9111   54.4631 C   0  0  0  1  0  0
   -3.3147  -33.4283   55.2841 O   0  0  0  1  0  0
   -4.2960  -33.4964   53.2928 O   0  0  0  1  0  0
   -6.1330  -31.5095   55.2084 C   0  0  0  1  0  0
   -5.0428  -31.2117   56.2066 C   0  0  0  1  0  0
   -3.7645  -30.7498   52.5557 C   0  0  0  1  0  0
   -3.3233  -29.7268   51.7059 C   0  0  0  1  0  0
   -3.0373  -25.9298   51.7023 C   0  0  0  1  0  0
   -1.6610  -25.2671   51.5893 C   0  0  0  1  0  0
    2.0292  -25.1669   46.2774 H   0  0
    0.4934  -25.8134   45.6784 H   0  0
    1.2789  -26.5711   47.0994 H   0  0
   -0.6473  -25.0990   47.6592 H   0  0
   -0.5480  -23.5142   45.8669 H   0  0
    0.9878  -22.8677   46.4658 H   0  0
   -0.5079  -22.6255   47.4221 H   0  0
    2.7863  -23.7041   47.8565 H   0  0
    4.0406  -23.3841   49.9730 H   0  0
    2.9703  -23.9443   52.1493 H   0  0
    0.6312  -24.7512   52.2078 H   0  0
   -2.6439  -25.6154   47.8966 H   0  0
   -5.3165  -22.3938   45.1764 H   0  0
   -6.0940  -21.4570   47.5432 H   0  0
   -3.9883  -22.6421   50.1857 H   0  0
   -5.2151  -23.8569   50.0613 H   0  0
   -5.7396  -22.0998   50.1181 H   0  0
   -0.8905  -26.7990   48.6038 H   0  0
   -0.2483  -27.2699   50.1497 H   0  0
   -3.1241  -27.3434   49.2115 H   0  0
   -2.1309  -28.6574   49.8471 H   0  0
   -3.5961  -27.0817   53.8654 H   0  0
   -4.3466  -28.9097   55.3766 H   0  0
   -4.0117  -32.7938   52.5661 H   0  0
   -6.5410  -32.5110   55.3446 H   0  0
   -6.6258  -30.5993   54.8668 H   0  0
   -4.9529  -30.1424   56.3977 H   0  0
   -4.8668  -32.0549   56.8745 H   0  0
   -3.8053  -31.7771   52.1936 H   0  0
   -3.0061  -29.9648   50.6906 H   0  0
   -3.3907  -25.8622   52.7312 H   0  0
   -3.7395  -25.4273   51.0371 H   0  0
   -1.7347  -24.2393   51.9448 H   0  0
   -0.9620  -25.7934   52.2394 H   0  0
  1  2  1  0
  2  3  1  0
  2  4  1  0
  4  5  2  0
  4  9  1  0
  5  6  1  0
  6  7  2  0
  7  8  1  0
  8  9  2  0
  9 10  1  0
 10 11  1  0
 10 20  1  0
 10 36  1  0
 11 12  2  0
 11 13  1  0
 13 14  1  0
 14 15  2  0
 14 18  1  0
 15 16  1  0
 16 17  2  0
 17 18  1  0
 18 19  1  0
 20 21  1  0
 21 22  1  0
 22 23  1  0
 22 35  1  0
 23 24  2  0
 23 34  1  0
 24 25  1  0
 25 26  2  0
 26 27  1  0
 26 33  1  0
 27 28  1  0
 27 31  1  0
 27 32  1  0
 28 29  2  0
 28 30  1  0
 31 32  1  0
 33 34  2  0
 35 36  1  0
  1 37  1  0
  1 38  1  0
  1 39  1  0
  2 40  1  0
  3 41  1  0
  3 42  1  0
  3 43  1  0
  5 44  1  0
  6 45  1  0
  7 46  1  0
  8 47  1  0
 13 48  1  0
 16 49  1  0
 17 50  1  0
 19 51  1  0
 19 52  1  0
 19 53  1  0
 20 54  1  0
 20 55  1  0
 21 56  1  0
 21 57  1  0
 24 58  1  0
 25 59  1  0
 30 60  1  0
 31 61  1  0
 31 62  1  0
 32 63  1  0
 32 64  1  0
 33 65  1  0
 34 66  1  0
 35 67  1  0
 35 68  1  0
 36 69  1  0
 36 70  1  0
M  END
> <Name>
Molecule

> <AbsoluteEnergy>
56.0339

> <Clean Energy>
216.53

> <ConfNumber>
37

> <MOL_NUMBER>
7

> <RelativeEnergy>
12.2609

> <POSE_NUMBER>
7

> <LibDockScore>
132.9812

> <HotSpots>
1.87,-25.32,48.38,A,30,1
0.87,-24.32,52.78,A,63,8
-4.73,-22.32,50.38,A,46,19

$$$$
Molecule
  SciTegic05072616053D

 70 74  0  0  0  0            999 V2000
   -0.1765  -23.5865   53.7127 C   0  0  0  1  0  0
   -0.6714  -24.6191   52.6812 C   0  0  0  1  0  0
    0.3720  -24.8465   51.5709 C   0  0  0  1  0  0
   -1.1069  -25.9184   53.3200 C   0  0  0  1  0  0
   -0.1432  -26.5801   54.1099 C   0  0  0  1  0  0
   -0.4456  -27.7673   54.7843 C   0  0  0  1  0  0
   -1.7251  -28.3175   54.6784 C   0  0  0  1  0  0
   -2.6939  -27.6905   53.8828 C   0  0  0  1  0  0
   -2.4103  -26.4972   53.1668 C   0  0  0  1  0  0
   -3.4882  -25.8833   52.2678 C   0  0  0  1  0  0
   -3.0164  -25.8678   50.8014 C   0  0  0  1  0  0
   -2.8138  -24.8136   50.2419 O   0  0  0  1  0  0
   -2.8393  -27.0478   50.1043 N   0  0  0  1  0  0
   -2.6477  -27.1223   48.6331 C   0  0  0  1  0  0
   -2.6758  -26.0664   47.7617 N   0  0  0  1  0  0
   -2.4876  -26.5682   46.5255 C   0  0  0  1  0  0
   -2.3267  -27.9423   46.6354 C   0  0  0  1  0  0
   -2.4268  -28.2835   47.9398 N   0  0  0  1  0  0
   -2.3210  -29.6446   48.4952 C   0  0  0  1  0  0
   -3.8772  -24.4463   52.7946 C   0  0  0  1  0  0
   -5.3085  -23.9845   52.4066 C   0  0  0  1  0  0
   -5.6684  -24.6095   51.1046 N   0  0  0  1  0  0
   -5.5909  -23.9455   49.8726 C   0  0  0  1  0  0
   -5.4365  -22.5381   49.8071 C   0  0  0  1  0  0
   -5.1172  -21.9035   48.5972 C   0  0  0  1  0  0
   -4.9678  -22.6594   47.4245 C   0  0  0  1  0  0
   -4.4568  -22.0131   46.1629 C   0  0  0  1  0  0
   -2.9936  -21.6145   46.3135 C   0  0  0  1  0  0
   -2.5960  -20.6199   45.7501 O   0  0  0  1  0  0
   -2.1789  -22.3458   47.0726 O   0  0  0  1  0  0
   -4.9673  -22.4827   44.8105 C   0  0  0  1  0  0
   -5.3716  -21.1262   45.3355 C   0  0  0  1  0  0
   -5.2692  -24.0300   47.4420 C   0  0  0  1  0  0
   -5.5995  -24.6618   48.6488 C   0  0  0  1  0  0
   -5.8991  -26.0800   51.2669 C   0  0  0  1  0  0
   -4.8535  -26.6716   52.2570 C   0  0  0  1  0  0
    0.0197  -22.6456   53.1985 H   0  0
    0.7516  -23.9504   54.1535 H   0  0
   -0.9262  -23.4381   54.4899 H   0  0
   -1.5620  -24.1966   52.2160 H   0  0
    1.2961  -25.2012   52.0274 H   0  0
    0.5642  -23.8964   51.0724 H   0  0
    0.0059  -25.5787   50.8512 H   0  0
    0.8577  -26.1572   54.1963 H   0  0
    0.3141  -28.2613   55.3901 H   0  0
   -1.9702  -29.2344   55.2144 H   0  0
   -3.6891  -28.1294   53.8119 H   0  0
   -2.8402  -27.9635   50.6579 H   0  0
   -2.4655  -25.9941   45.5992 H   0  0
   -2.1494  -28.6307   45.8091 H   0  0
   -3.2522  -29.7350   49.0545 H   0  0
   -1.5403  -29.5237   49.2462 H   0  0
   -2.1419  -30.4563   47.7900 H   0  0
   -3.7891  -24.4352   53.8810 H   0  0
   -3.1599  -23.7232   52.4064 H   0  0
   -6.0157  -24.3027   53.1726 H   0  0
   -5.3298  -22.8991   52.3090 H   0  0
   -5.5676  -21.9405   50.7092 H   0  0
   -4.9850  -20.8219   48.5682 H   0  0
   -2.2479  -23.3161   46.6774 H   0  0
   -5.7712  -23.2110   44.9169 H   0  0
   -4.1971  -22.4039   44.0432 H   0  0
   -4.8177  -20.3246   44.8470 H   0  0
   -6.3908  -21.1319   45.7220 H   0  0
   -5.2464  -24.6040   46.5157 H   0  0
   -5.8667  -25.7185   48.6465 H   0  0
   -6.9029  -26.2487   51.6569 H   0  0
   -5.8004  -26.5725   50.2995 H   0  0
   -4.6605  -27.7099   51.9872 H   0  0
   -5.2758  -26.6636   53.2619 H   0  0
  1  2  1  0
  2  3  1  0
  2  4  1  0
  4  5  2  0
  4  9  1  0
  5  6  1  0
  6  7  2  0
  7  8  1  0
  8  9  2  0
  9 10  1  0
 10 11  1  0
 10 20  1  0
 10 36  1  0
 11 12  2  0
 11 13  1  0
 13 14  1  0
 14 15  2  0
 14 18  1  0
 15 16  1  0
 16 17  2  0
 17 18  1  0
 18 19  1  0
 20 21  1  0
 21 22  1  0
 22 23  1  0
 22 35  1  0
 23 24  2  0
 23 34  1  0
 24 25  1  0
 25 26  2  0
 26 27  1  0
 26 33  1  0
 27 28  1  0
 27 31  1  0
 27 32  1  0
 28 29  2  0
 28 30  1  0
 31 32  1  0
 33 34  2  0
 35 36  1  0
  1 37  1  0
  1 38  1  0
  1 39  1  0
  2 40  1  0
  3 41  1  0
  3 42  1  0
  3 43  1  0
  5 44  1  0
  6 45  1  0
  7 46  1  0
  8 47  1  0
 13 48  1  0
 16 49  1  0
 17 50  1  0
 19 51  1  0
 19 52  1  0
 19 53  1  0
 20 54  1  0
 20 55  1  0
 21 56  1  0
 21 57  1  0
 24 58  1  0
 25 59  1  0
 30 60  1  0
 31 61  1  0
 31 62  1  0
 32 63  1  0
 32 64  1  0
 33 65  1  0
 34 66  1  0
 35 67  1  0
 35 68  1  0
 36 69  1  0
 36 70  1  0
M  END
> <Name>
Molecule

> <AbsoluteEnergy>
51.5006

> <Clean Energy>
216.53

> <ConfNumber>
14

> <MOL_NUMBER>
7

> <RelativeEnergy>
7.72756

> <POSE_NUMBER>
8

> <LibDockScore>
131.3743

> <HotSpots>
-0.93,-28.12,54.98,A,74,6
-4.93,-21.52,45.19,A,11,31
-4.93,-23.52,47.59,A,26,33

$$$$
Molecule
  SciTegic05072616053D

 70 74  0  0  0  0            999 V2000
    1.6733  -26.0667   46.9999 C   0  0  0  1  0  0
    0.8302  -24.9205   47.5917 C   0  0  0  1  0  0
    0.9368  -23.6437   46.7360 C   0  0  0  1  0  0
    1.1745  -24.6550   49.0412 C   0  0  0  1  0  0
    2.5254  -24.3538   49.3261 C   0  0  0  1  0  0
    2.9528  -24.0904   50.6325 C   0  0  0  1  0  0
    2.0309  -24.1196   51.6804 C   0  0  0  1  0  0
    0.6855  -24.4135   51.4228 C   0  0  0  1  0  0
    0.2195  -24.6893   50.1108 C   0  0  0  1  0  0
   -1.2656  -25.0069   49.8794 C   0  0  0  1  0  0
   -1.7531  -24.4421   48.5356 C   0  0  0  1  0  0
   -2.2030  -25.1980   47.7104 O   0  0  0  1  0  0
   -1.6643  -23.0865   48.2645 N   0  0  0  1  0  0
   -2.4137  -22.3240   47.2291 C   0  0  0  1  0  0
   -1.9270  -21.1531   46.7126 N   0  0  0  1  0  0
   -2.8035  -20.7281   45.7836 C   0  0  0  1  0  0
   -3.8557  -21.6297   45.7381 C   0  0  0  1  0  0
   -3.6333  -22.6048   46.6479 N   0  0  0  1  0  0
   -4.5799  -23.6990   46.9368 C   0  0  0  1  0  0
   -1.4724  -26.5462   50.0467 C   0  0  0  1  0  0
   -2.9254  -27.0512   49.9287 C   0  0  0  1  0  0
   -3.9007  -26.2568   50.7351 N   0  0  0  1  0  0
   -4.9745  -26.8566   51.3949 C   0  0  0  1  0  0
   -6.0944  -26.0807   51.7722 C   0  0  0  1  0  0
   -7.1962  -26.6692   52.4161 C   0  0  0  1  0  0
   -7.1990  -28.0459   52.6993 C   0  0  0  1  0  0
   -8.3918  -28.6787   53.3780 C   0  0  0  1  0  0
   -9.1283  -29.6643   52.4831 C   0  0  0  1  0  0
   -9.5204  -30.7098   52.9492 O   0  0  0  1  0  0
   -9.3253  -29.3491   51.2034 O   0  0  0  1  0  0
   -9.2224  -27.8473   54.3437 C   0  0  0  1  0  0
   -8.3371  -28.9474   54.8752 C   0  0  0  1  0  0
   -6.0875  -28.8282   52.3416 C   0  0  0  1  0  0
   -4.9839  -28.2398   51.7003 C   0  0  0  1  0  0
   -3.7015  -24.7759   50.7633 C   0  0  0  1  0  0
   -2.2203  -24.3881   50.9468 C   0  0  0  1  0  0
    2.7138  -25.7454   46.9523 H   0  0
    1.3196  -26.2740   45.9899 H   0  0
    1.5857  -26.9604   47.6177 H   0  0
   -0.2111  -25.2418   47.5690 H   0  0
    0.5888  -23.8696   45.7280 H   0  0
    1.9829  -23.3410   46.6904 H   0  0
    0.3348  -22.8450   47.1693 H   0  0
    3.2494  -24.3260   48.5117 H   0  0
    4.0003  -23.8636   50.8308 H   0  0
    2.3580  -23.9136   52.6996 H   0  0
   -0.0220  -24.4308   52.2518 H   0  0
   -0.9808  -22.5251   48.8666 H   0  0
   -2.7034  -19.8307   45.1730 H   0  0
   -4.7201  -21.5633   45.0775 H   0  0
   -4.7189  -23.5761   48.0109 H   0  0
   -3.9304  -24.5685   46.8358 H   0  0
   -5.5029  -23.7483   46.3591 H   0  0
   -0.8672  -27.0600   49.2998 H   0  0
   -1.0818  -26.8452   51.0194 H   0  0
   -3.2267  -27.0192   48.8817 H   0  0
   -2.9665  -28.0911   50.2527 H   0  0
   -6.1034  -25.0114   51.5608 H   0  0
   -8.0521  -26.0555   52.6970 H   0  0
   -8.3675  -29.1604   50.8167 H   0  0
  -10.2706  -28.1459   54.3293 H   0  0
   -8.7821  -26.8632   54.5043 H   0  0
   -7.4245  -28.5503   55.3196 H   0  0
   -8.9127  -29.8334   55.1431 H   0  0
   -6.0813  -29.8956   52.5624 H   0  0
   -4.1246  -28.8555   51.4346 H   0  0
   -4.2839  -24.3532   51.5820 H   0  0
   -4.0679  -24.3498   49.8293 H   0  0
   -2.1351  -23.3021   50.9092 H   0  0
   -1.8945  -24.7064   51.9371 H   0  0
  1  2  1  0
  2  3  1  0
  2  4  1  0
  4  5  2  0
  4  9  1  0
  5  6  1  0
  6  7  2  0
  7  8  1  0
  8  9  2  0
  9 10  1  0
 10 11  1  0
 10 20  1  0
 10 36  1  0
 11 12  2  0
 11 13  1  0
 13 14  1  0
 14 15  2  0
 14 18  1  0
 15 16  1  0
 16 17  2  0
 17 18  1  0
 18 19  1  0
 20 21  1  0
 21 22  1  0
 22 23  1  0
 22 35  1  0
 23 24  2  0
 23 34  1  0
 24 25  1  0
 25 26  2  0
 26 27  1  0
 26 33  1  0
 27 28  1  0
 27 31  1  0
 27 32  1  0
 28 29  2  0
 28 30  1  0
 31 32  1  0
 33 34  2  0
 35 36  1  0
  1 37  1  0
  1 38  1  0
  1 39  1  0
  2 40  1  0
  3 41  1  0
  3 42  1  0
  3 43  1  0
  5 44  1  0
  6 45  1  0
  7 46  1  0
  8 47  1  0
 13 48  1  0
 16 49  1  0
 17 50  1  0
 19 51  1  0
 19 52  1  0
 19 53  1  0
 20 54  1  0
 20 55  1  0
 21 56  1  0
 21 57  1  0
 24 58  1  0
 25 59  1  0
 30 60  1  0
 31 61  1  0
 31 62  1  0
 32 63  1  0
 32 64  1  0
 33 65  1  0
 34 66  1  0
 35 67  1  0
 35 68  1  0
 36 69  1  0
 36 70  1  0
M  END
> <Name>
Molecule

> <AbsoluteEnergy>
47.1183

> <Clean Energy>
216.53

> <ConfNumber>
6

> <MOL_NUMBER>
7

> <RelativeEnergy>
3.34528

> <POSE_NUMBER>
9

> <LibDockScore>
131.3641

> <HotSpots>
0.47,-23.32,53.78,A,67,7
-3.53,-22.32,46.59,A,20,17
-7.93,-28.32,52.38,A,59,25

$$$$
Molecule
  SciTegic05072616053D

 70 74  0  0  0  0            999 V2000
   -3.9815  -30.0901   52.3359 C   0  0  0  1  0  0
   -4.1996  -28.9113   53.3072 C   0  0  0  1  0  0
   -4.9721  -29.3610   54.5618 C   0  0  0  1  0  0
   -2.8979  -28.2239   53.6691 C   0  0  0  1  0  0
   -2.0421  -28.9404   54.5367 C   0  0  0  1  0  0
   -0.8256  -28.4044   54.9692 C   0  0  0  1  0  0
   -0.4407  -27.1311   54.5462 C   0  0  0  1  0  0
   -1.2701  -26.4022   53.6848 C   0  0  0  1  0  0
   -2.5007  -26.9234   53.2018 C   0  0  0  1  0  0
   -3.3406  -26.0792   52.2288 C   0  0  0  1  0  0
   -2.4855  -25.2078   51.2713 C   0  0  0  1  0  0
   -2.5256  -24.0046   51.3695 O   0  0  0  1  0  0
   -1.6860  -25.7849   50.2989 N   0  0  0  1  0  0
   -0.8235  -25.1215   49.2797 C   0  0  0  1  0  0
    0.1768  -25.8242   48.6661 N   0  0  0  1  0  0
    0.7583  -25.0085   47.7694 C   0  0  0  1  0  0
    0.1205  -23.7784   47.8319 C   0  0  0  1  0  0
   -0.8463  -23.8323   48.7777 N   0  0  0  1  0  0
   -1.7129  -22.6862   49.1185 C   0  0  0  1  0  0
   -4.2821  -26.9702   51.3160 C   0  0  0  1  0  0
   -5.6284  -26.3016   50.9648 C   0  0  0  1  0  0
   -5.4415  -24.8338   50.8828 N   0  0  0  1  0  0
   -5.3771  -24.1358   49.6826 C   0  0  0  1  0  0
   -4.9425  -24.7867   48.5058 C   0  0  0  1  0  0
   -4.7782  -24.0698   47.3116 C   0  0  0  1  0  0
   -5.0579  -22.6924   47.2698 C   0  0  0  1  0  0
   -4.8093  -21.9152   45.9967 C   0  0  0  1  0  0
   -3.3904  -21.3507   45.9182 C   0  0  0  1  0  0
   -2.4782  -21.9659   46.4322 O   0  0  0  1  0  0
   -3.1870  -20.1908   45.2895 O   0  0  0  1  0  0
   -5.4532  -22.3803   44.7002 C   0  0  0  1  0  0
   -5.9576  -21.1300   45.3812 C   0  0  0  1  0  0
   -5.5496  -22.0471   48.4186 C   0  0  0  1  0  0
   -5.7106  -22.7642   49.6180 C   0  0  0  1  0  0
   -5.1870  -24.1903   52.1996 C   0  0  0  1  0  0
   -4.2242  -25.0657   53.0537 C   0  0  0  1  0  0
   -4.9532  -30.4875   52.0426 H   0  0
   -3.4190  -30.8692   52.8504 H   0  0
   -3.4342  -29.7562   51.4543 H   0  0
   -4.8106  -28.1729   52.7880 H   0  0
   -4.4033  -30.1448   55.0619 H   0  0
   -5.9374  -29.7631   54.2541 H   0  0
   -5.1181  -28.5181   55.2373 H   0  0
   -2.3375  -29.9332   54.8761 H   0  0
   -0.1802  -28.9785   55.6341 H   0  0
    0.5034  -26.7050   54.8856 H   0  0
   -0.9620  -25.4036   53.3751 H   0  0
   -1.6875  -26.8547   50.2759 H   0  0
    1.5858  -25.2683   47.1092 H   0  0
    0.3591  -22.9093   47.2188 H   0  0
   -1.5716  -22.6427   50.1984 H   0  0
   -2.6979  -23.1342   48.9874 H   0  0
   -1.5624  -21.7419   48.5953 H   0  0
   -4.4814  -27.9121   51.8270 H   0  0
   -3.7558  -27.2059   50.3910 H   0  0
   -6.3622  -26.5314   51.7374 H   0  0
   -5.9812  -26.6769   50.0042 H   0  0
   -4.7330  -25.8562   48.5265 H   0  0
   -4.4328  -24.5818   46.4135 H   0  0
   -3.8198  -19.5052   45.7711 H   0  0
   -6.1212  -23.2256   44.8657 H   0  0
   -4.8300  -22.1448   43.8375 H   0  0
   -5.6033  -20.2288   44.8808 H   0  0
   -6.8934  -21.3098   45.9103 H   0  0
   -5.8066  -20.9886   48.3795 H   0  0
   -6.0952  -22.2584   50.5036 H   0  0
   -6.1307  -24.0684   52.7313 H   0  0
   -4.7382  -23.2096   52.0415 H   0  0
   -3.5658  -24.4073   53.6204 H   0  0
   -4.8142  -25.6262   53.7788 H   0  0
  1  2  1  0
  2  3  1  0
  2  4  1  0
  4  5  2  0
  4  9  1  0
  5  6  1  0
  6  7  2  0
  7  8  1  0
  8  9  2  0
  9 10  1  0
 10 11  1  0
 10 20  1  0
 10 36  1  0
 11 12  2  0
 11 13  1  0
 13 14  1  0
 14 15  2  0
 14 18  1  0
 15 16  1  0
 16 17  2  0
 17 18  1  0
 18 19  1  0
 20 21  1  0
 21 22  1  0
 22 23  1  0
 22 35  1  0
 23 24  2  0
 23 34  1  0
 24 25  1  0
 25 26  2  0
 26 27  1  0
 26 33  1  0
 27 28  1  0
 27 31  1  0
 27 32  1  0
 28 29  2  0
 28 30  1  0
 31 32  1  0
 33 34  2  0
 35 36  1  0
  1 37  1  0
  1 38  1  0
  1 39  1  0
  2 40  1  0
  3 41  1  0
  3 42  1  0
  3 43  1  0
  5 44  1  0
  6 45  1  0
  7 46  1  0
  8 47  1  0
 13 48  1  0
 16 49  1  0
 17 50  1  0
 19 51  1  0
 19 52  1  0
 19 53  1  0
 20 54  1  0
 20 55  1  0
 21 56  1  0
 21 57  1  0
 24 58  1  0
 25 59  1  0
 30 60  1  0
 31 61  1  0
 31 62  1  0
 32 63  1  0
 32 64  1  0
 33 65  1  0
 34 66  1  0
 35 67  1  0
 35 68  1  0
 36 69  1  0
 36 70  1  0
M  END
> <Name>
Molecule

> <AbsoluteEnergy>
55.5841

> <Clean Energy>
216.53

> <ConfNumber>
33

> <MOL_NUMBER>
7

> <RelativeEnergy>
11.8111

> <POSE_NUMBER>
10

> <LibDockScore>
130.9919

> <HotSpots>
-0.93,-28.12,54.98,A,74,6
-3.73,-20.12,45.19,P,20,30
-6.33,-21.32,44.98,A,9,32

$$$$
Molecule
  SciTegic05072616053D

 70 74  0  0  0  0            999 V2000
   -2.9777  -22.7211   46.4509 C   0  0  0  1  0  0
   -3.6611  -23.9225   47.1344 C   0  0  0  1  0  0
   -4.6501  -24.6206   46.1793 C   0  0  0  1  0  0
   -4.3153  -23.5283   48.4402 C   0  0  0  1  0  0
   -5.3446  -22.5616   48.3636 C   0  0  0  1  0  0
   -6.0380  -22.1437   49.5058 C   0  0  0  1  0  0
   -5.7059  -22.6793   50.7518 C   0  0  0  1  0  0
   -4.6786  -23.6224   50.8547 C   0  0  0  1  0  0
   -3.9572  -24.0751   49.7176 C   0  0  0  1  0  0
   -2.8533  -25.1288   49.8944 C   0  0  0  1  0  0
   -1.5217  -24.7263   49.2516 C   0  0  0  1  0  0
   -1.3096  -25.0356   48.1049 O   0  0  0  1  0  0
   -0.5789  -24.0195   49.9750 N   0  0  0  1  0  0
    0.8807  -23.9416   49.7081 C   0  0  0  1  0  0
    1.6917  -23.1193   50.4386 N   0  0  0  1  0  0
    2.9391  -23.2492   49.9520 C   0  0  0  1  0  0
    2.9066  -24.1774   48.9236 C   0  0  0  1  0  0
    1.6395  -24.6281   48.7843 N   0  0  0  1  0  0
    1.2370  -25.6850   47.8366 C   0  0  0  1  0  0
   -2.4449  -25.3567   51.3962 C   0  0  0  1  0  0
   -1.5377  -26.5828   51.5862 C   0  0  0  1  0  0
   -2.3281  -27.7486   51.1335 N   0  0  0  1  0  0
   -2.9122  -28.6440   52.0167 C   0  0  0  1  0  0
   -3.8689  -29.6023   51.6070 C   0  0  0  1  0  0
   -4.4743  -30.4482   52.5534 C   0  0  0  1  0  0
   -4.1319  -30.3418   53.9155 C   0  0  0  1  0  0
   -4.7667  -31.2210   54.9611 C   0  0  0  1  0  0
   -3.8467  -31.4015   56.1562 C   0  0  0  1  0  0
   -3.8397  -30.5539   57.0198 O   0  0  0  1  0  0
   -3.0583  -32.4726   56.2040 O   0  0  0  1  0  0
   -5.7411  -32.3251   54.5877 C   0  0  0  1  0  0
   -6.2567  -31.0545   55.2166 C   0  0  0  1  0  0
   -3.1680  -29.4061   54.3215 C   0  0  0  1  0  0
   -2.5580  -28.5751   53.3803 C   0  0  0  1  0  0
   -2.5681  -27.7560   49.6763 C   0  0  0  1  0  0
   -3.3934  -26.4934   49.3228 C   0  0  0  1  0  0
   -3.7452  -22.0126   46.1393 H   0  0
   -2.4439  -23.0770   45.5697 H   0  0
   -2.2828  -22.2396   47.1389 H   0  0
   -2.8838  -24.6460   47.3803 H   0  0
   -4.1047  -24.9633   45.3000 H   0  0
   -5.4060  -23.8989   45.8696 H   0  0
   -5.1238  -25.4665   46.6775 H   0  0
   -5.6034  -22.1330   47.3954 H   0  0
   -6.8337  -21.4034   49.4228 H   0  0
   -6.2469  -22.3626   51.6435 H   0  0
   -4.4238  -24.0220   51.8363 H   0  0
   -0.9395  -23.4689   50.8186 H   0  0
    3.8221  -22.7167   50.3053 H   0  0
    3.7617  -24.4923   48.3255 H   0  0
    0.4080  -25.1984   47.3227 H   0  0
    0.7670  -26.4007   48.5111 H   0  0
    1.9979  -26.1068   47.1800 H   0  0
   -1.9245  -24.4713   51.7613 H   0  0
   -3.3464  -25.4875   51.9948 H   0  0
   -0.6422  -26.4803   50.9732 H   0  0
   -1.2800  -26.6951   52.6393 H   0  0
   -4.1378  -29.6853   50.5539 H   0  0
   -5.2090  -31.1867   52.2326 H   0  0
   -2.4939  -32.4380   55.3193 H   0  0
   -5.7108  -33.1454   55.3048 H   0  0
   -5.9278  -32.3473   53.5140 H   0  0
   -6.7183  -30.3987   54.4784 H   0  0
   -6.4997  -31.1964   56.2697 H   0  0
   -2.8951  -29.3281   55.3739 H   0  0
   -1.7980  -27.8636   53.7033 H   0  0
   -3.1287  -28.6489   49.3996 H   0  0
   -1.6157  -27.7310   49.1468 H   0  0
   -3.4545  -26.4151   48.2373 H   0  0
   -4.4135  -26.6381   49.6786 H   0  0
  1  2  1  0
  2  3  1  0
  2  4  1  0
  4  5  2  0
  4  9  1  0
  5  6  1  0
  6  7  2  0
  7  8  1  0
  8  9  2  0
  9 10  1  0
 10 11  1  0
 10 20  1  0
 10 36  1  0
 11 12  2  0
 11 13  1  0
 13 14  1  0
 14 15  2  0
 14 18  1  0
 15 16  1  0
 16 17  2  0
 17 18  1  0
 18 19  1  0
 20 21  1  0
 21 22  1  0
 22 23  1  0
 22 35  1  0
 23 24  2  0
 23 34  1  0
 24 25  1  0
 25 26  2  0
 26 27  1  0
 26 33  1  0
 27 28  1  0
 27 31  1  0
 27 32  1  0
 28 29  2  0
 28 30  1  0
 31 32  1  0
 33 34  2  0
 35 36  1  0
  1 37  1  0
  1 38  1  0
  1 39  1  0
  2 40  1  0
  3 41  1  0
  3 42  1  0
  3 43  1  0
  5 44  1  0
  6 45  1  0
  7 46  1  0
  8 47  1  0
 13 48  1  0
 16 49  1  0
 17 50  1  0
 19 51  1  0
 19 52  1  0
 19 53  1  0
 20 54  1  0
 20 55  1  0
 21 56  1  0
 21 57  1  0
 24 58  1  0
 25 59  1  0
 30 60  1  0
 31 61  1  0
 31 62  1  0
 32 63  1  0
 32 64  1  0
 33 65  1  0
 34 66  1  0
 35 67  1  0
 35 68  1  0
 36 69  1  0
 36 70  1  0
M  END
> <Name>
Molecule

> <AbsoluteEnergy>
51.965

> <Clean Energy>
216.53

> <ConfNumber>
17

> <MOL_NUMBER>
7

> <RelativeEnergy>
8.19197

> <POSE_NUMBER>
11

> <LibDockScore>
130.9664

> <HotSpots>
-4.53,-24.52,46.19,A,17,3
1.87,-25.32,48.38,A,30,19
-4.13,-30.52,57.38,P,71,29

$$$$
Molecule
  SciTegic05072616053D

 70 74  0  0  0  0            999 V2000
   -5.5340  -22.6477   48.2256 C   0  0  0  1  0  0
   -4.4856  -23.4942   48.9868 C   0  0  0  1  0  0
   -3.4638  -22.5451   49.6373 C   0  0  0  1  0  0
   -3.8115  -24.5948   48.1851 C   0  0  0  1  0  0
   -4.0229  -24.5739   46.7816 C   0  0  0  1  0  0
   -3.4724  -25.5359   45.9329 C   0  0  0  1  0  0
   -2.6771  -26.5455   46.4635 C   0  0  0  1  0  0
   -2.4347  -26.5854   47.8392 C   0  0  0  1  0  0
   -2.9801  -25.6354   48.7477 C   0  0  0  1  0  0
   -2.5996  -25.8118   50.2427 C   0  0  0  1  0  0
   -1.1832  -25.2859   50.5183 C   0  0  0  1  0  0
   -0.8164  -25.1373   51.6627 O   0  0  0  1  0  0
   -0.3190  -24.9858   49.4801 N   0  0  0  1  0  0
    1.1113  -24.6181   49.6488 C   0  0  0  1  0  0
    1.7403  -24.4048   50.8452 N   0  0  0  1  0  0
    3.0224  -24.0966   50.5737 C   0  0  0  1  0  0
    3.1909  -24.1196   49.1976 C   0  0  0  1  0  0
    2.0094  -24.4400   48.6233 N   0  0  0  1  0  0
    1.7799  -24.5593   47.1700 C   0  0  0  1  0  0
   -2.6255  -27.3064   50.7163 C   0  0  0  1  0  0
   -4.0180  -27.9705   50.6259 C   0  0  0  1  0  0
   -5.0744  -27.1835   51.3379 N   0  0  0  1  0  0
   -6.0647  -27.7839   52.1157 C   0  0  0  1  0  0
   -5.9582  -29.1272   52.5469 C   0  0  0  1  0  0
   -6.9657  -29.7136   53.3309 C   0  0  0  1  0  0
   -8.0940  -28.9661   53.7098 C   0  0  0  1  0  0
   -9.1668  -29.5880   54.5702 C   0  0  0  1  0  0
   -9.1049  -29.1101   56.0123 C   0  0  0  1  0  0
   -9.8271  -29.6218   56.8373 O   0  0  0  1  0  0
   -8.2516  -28.1379   56.3314 O   0  0  0  1  0  0
   -9.6110  -31.0159   54.2877 C   0  0  0  1  0  0
  -10.5359  -29.8666   53.9688 C   0  0  0  1  0  0
   -8.2141  -27.6316   53.2875 C   0  0  0  1  0  0
   -7.2120  -27.0475   52.4964 C   0  0  0  1  0  0
   -5.0257  -25.7016   51.1557 C   0  0  0  1  0  0
   -3.5827  -25.1711   51.2660 C   0  0  0  1  0  0
   -5.0431  -22.0587   47.4508 H   0  0
   -6.0485  -21.9831   48.9196 H   0  0
   -6.2622  -23.3128   47.7614 H   0  0
   -5.0329  -24.0531   49.7459 H   0  0
   -3.9691  -21.8800   50.3376 H   0  0
   -2.9637  -21.9557   48.8688 H   0  0
   -2.7212  -23.1337   50.1759 H   0  0
   -4.6351  -23.7807   46.3525 H   0  0
   -3.6649  -25.4958   44.8608 H   0  0
   -2.2446  -27.3025   45.8093 H   0  0
   -1.8001  -27.3789   48.2337 H   0  0
   -0.7084  -25.0210   48.4841 H   0  0
    3.7944  -23.8685   51.3086 H   0  0
    4.1207  -23.9137   48.6672 H   0  0
    0.9387  -23.8809   47.0274 H   0  0
    1.3542  -25.5603   47.0996 H   0  0
    2.6254  -24.3787   46.5062 H   0  0
   -1.9236  -27.8797   50.1107 H   0  0
   -2.2803  -27.3554   51.7490 H   0  0
   -4.2972  -28.0712   49.5771 H   0  0
   -3.9665  -28.9688   51.0605 H   0  0
   -5.0835  -29.7144   52.2673 H   0  0
   -6.8720  -30.7526   53.6467 H   0  0
   -8.4984  -27.3371   55.6987 H   0  0
   -9.9087  -31.5303   55.2014 H   0  0
   -9.1362  -31.4115   53.3898 H   0  0
  -10.5553  -29.6502   52.9007 H   0  0
  -11.3265  -29.7679   54.7126 H   0  0
   -9.0884  -27.0476   53.5750 H   0  0
   -7.3190  -26.0127   52.1709 H   0  0
   -5.6418  -25.2252   51.9183 H   0  0
   -5.4269  -25.4476   50.1746 H   0  0
   -3.5932  -24.0913   51.1178 H   0  0
   -3.2148  -25.3603   52.2744 H   0  0
  1  2  1  0
  2  3  1  0
  2  4  1  0
  4  5  2  0
  4  9  1  0
  5  6  1  0
  6  7  2  0
  7  8  1  0
  8  9  2  0
  9 10  1  0
 10 11  1  0
 10 20  1  0
 10 36  1  0
 11 12  2  0
 11 13  1  0
 13 14  1  0
 14 15  2  0
 14 18  1  0
 15 16  1  0
 16 17  2  0
 17 18  1  0
 18 19  1  0
 20 21  1  0
 21 22  1  0
 22 23  1  0
 22 35  1  0
 23 24  2  0
 23 34  1  0
 24 25  1  0
 25 26  2  0
 26 27  1  0
 26 33  1  0
 27 28  1  0
 27 31  1  0
 27 32  1  0
 28 29  2  0
 28 30  1  0
 31 32  1  0
 33 34  2  0
 35 36  1  0
  1 37  1  0
  1 38  1  0
  1 39  1  0
  2 40  1  0
  3 41  1  0
  3 42  1  0
  3 43  1  0
  5 44  1  0
  6 45  1  0
  7 46  1  0
  8 47  1  0
 13 48  1  0
 16 49  1  0
 17 50  1  0
 19 51  1  0
 19 52  1  0
 19 53  1  0
 20 54  1  0
 20 55  1  0
 21 56  1  0
 21 57  1  0
 24 58  1  0
 25 59  1  0
 30 60  1  0
 31 61  1  0
 31 62  1  0
 32 63  1  0
 32 64  1  0
 33 65  1  0
 34 66  1  0
 35 67  1  0
 35 68  1  0
 36 69  1  0
 36 70  1  0
M  END
> <Name>
Molecule

> <AbsoluteEnergy>
52.7547

> <Clean Energy>
216.53

> <ConfNumber>
18

> <MOL_NUMBER>
7

> <RelativeEnergy>
8.98166

> <POSE_NUMBER>
12

> <LibDockScore>
130.7346

> <HotSpots>
-2.93,-26.32,45.98,A,15,7
2.67,-22.92,49.98,A,39,16
-7.93,-28.32,52.38,A,59,33

$$$$
Molecule
  SciTegic05072616053D

 70 74  0  0  0  0            999 V2000
   -4.2450  -23.2552   47.5390 C   0  0  0  1  0  0
   -3.0435  -23.8500   46.7891 C   0  0  0  1  0  0
   -3.2180  -25.3378   46.4224 C   0  0  0  1  0  0
   -1.6391  -23.4763   47.2619 C   0  0  0  1  0  0
   -0.9096  -22.7049   46.3204 C   0  0  0  1  0  0
    0.3855  -22.2492   46.5724 C   0  0  0  1  0  0
    0.9970  -22.5562   47.7857 C   0  0  0  1  0  0
    0.3131  -23.3237   48.7337 C   0  0  0  1  0  0
   -1.0027  -23.8187   48.5149 C   0  0  0  1  0  0
   -1.6477  -24.6744   49.6265 C   0  0  0  1  0  0
   -2.8092  -23.8955   50.2671 C   0  0  0  1  0  0
   -2.6258  -22.7568   50.6369 O   0  0  0  1  0  0
   -4.0613  -24.4645   50.4264 N   0  0  0  1  0  0
   -5.3398  -23.7126   50.4543 C   0  0  0  1  0  0
   -5.5144  -22.4017   50.1081 N   0  0  0  1  0  0
   -6.8199  -22.1172   50.2854 C   0  0  0  1  0  0
   -7.4556  -23.2629   50.7420 C   0  0  0  1  0  0
   -6.5399  -24.2502   50.8412 N   0  0  0  1  0  0
   -6.7973  -25.6323   51.2844 C   0  0  0  1  0  0
   -0.6821  -24.9497   50.8336 C   0  0  0  1  0  0
   -1.2488  -25.8853   51.9195 C   0  0  0  1  0  0
   -1.8217  -27.1369   51.3477 N   0  0  0  1  0  0
   -2.5022  -28.0656   52.1414 C   0  0  0  1  0  0
   -2.4885  -27.9626   53.5533 C   0  0  0  1  0  0
   -3.1945  -28.8738   54.3525 C   0  0  0  1  0  0
   -3.9226  -29.9185   53.7600 C   0  0  0  1  0  0
   -4.6899  -30.8929   54.6210 C   0  0  0  1  0  0
   -3.9052  -31.3540   55.8388 C   0  0  0  1  0  0
   -3.2830  -32.3890   55.7811 O   0  0  0  1  0  0
   -3.9253  -30.6036   56.9400 O   0  0  0  1  0  0
   -5.6421  -31.8805   53.9640 C   0  0  0  1  0  0
   -6.1953  -30.7267   54.7631 C   0  0  0  1  0  0
   -3.9304  -30.0492   52.3612 C   0  0  0  1  0  0
   -3.2243  -29.1356   51.5616 C   0  0  0  1  0  0
   -1.6150  -27.3267   49.8828 C   0  0  0  1  0  0
   -2.0142  -26.0873   49.0484 C   0  0  0  1  0  0
   -4.3916  -23.8418   48.4460 H   0  0
   -5.1231  -23.3760   46.9046 H   0  0
   -4.0830  -22.2045   47.7796 H   0  0
   -3.0831  -23.2931   45.8529 H   0  0
   -4.1134  -25.4235   45.8068 H   0  0
   -3.3819  -25.8892   47.3482 H   0  0
   -2.3460  -25.7213   45.8927 H   0  0
   -1.3771  -22.4596   45.3668 H   0  0
    0.9144  -21.6575   45.8253 H   0  0
    2.0053  -22.1993   47.9955 H   0  0
    0.8078  -23.5518   49.6778 H   0  0
   -4.1106  -25.5275   50.5379 H   0  0
   -7.2945  -21.1533   50.1017 H   0  0
   -8.5155  -23.3511   50.9804 H   0  0
   -6.0773  -25.7479   52.0945 H   0  0
   -6.3972  -26.2144   50.4542 H   0  0
   -7.8221  -25.8852   51.5562 H   0  0
   -0.4200  -23.9984   51.2967 H   0  0
    0.2423  -25.3817   50.4502 H   0  0
   -0.4524  -26.1458   52.6166 H   0  0
   -2.0268  -25.3600   52.4734 H   0  0
   -1.9201  -27.1622   54.0270 H   0  0
   -3.1780  -28.7707   55.4375 H   0  0
   -4.9413  -30.5033   57.1852 H   0  0
   -5.6939  -32.8166   54.5200 H   0  0
   -5.7239  -31.7034   52.8916 H   0  0
   -6.5730  -29.9342   54.1171 H   0  0
   -6.5415  -31.0469   55.7458 H   0  0
   -4.4864  -30.8625   51.8948 H   0  0
   -3.2326  -29.2525   50.4779 H   0  0
   -2.2033  -28.1818   49.5498 H   0  0
   -0.5644  -27.5527   49.7005 H   0  0
   -1.5613  -26.1819   48.0615 H   0  0
   -3.0912  -26.1206   48.8841 H   0  0
  1  2  1  0
  2  3  1  0
  2  4  1  0
  4  5  2  0
  4  9  1  0
  5  6  1  0
  6  7  2  0
  7  8  1  0
  8  9  2  0
  9 10  1  0
 10 11  1  0
 10 20  1  0
 10 36  1  0
 11 12  2  0
 11 13  1  0
 13 14  1  0
 14 15  2  0
 14 18  1  0
 15 16  1  0
 16 17  2  0
 17 18  1  0
 18 19  1  0
 20 21  1  0
 21 22  1  0
 22 23  1  0
 22 35  1  0
 23 24  2  0
 23 34  1  0
 24 25  1  0
 25 26  2  0
 26 27  1  0
 26 33  1  0
 27 28  1  0
 27 31  1  0
 27 32  1  0
 28 29  2  0
 28 30  1  0
 31 32  1  0
 33 34  2  0
 35 36  1  0
  1 37  1  0
  1 38  1  0
  1 39  1  0
  2 40  1  0
  3 41  1  0
  3 42  1  0
  3 43  1  0
  5 44  1  0
  6 45  1  0
  7 46  1  0
  8 47  1  0
 13 48  1  0
 16 49  1  0
 17 50  1  0
 19 51  1  0
 19 52  1  0
 19 53  1  0
 20 54  1  0
 20 55  1  0
 21 56  1  0
 21 57  1  0
 24 58  1  0
 25 59  1  0
 30 60  1  0
 31 61  1  0
 31 62  1  0
 32 63  1  0
 32 64  1  0
 33 65  1  0
 34 66  1  0
 35 67  1  0
 35 68  1  0
 36 69  1  0
 36 70  1  0
M  END
> <Name>
Molecule

> <AbsoluteEnergy>
55.8175

> <Clean Energy>
216.53

> <ConfNumber>
35

> <MOL_NUMBER>
7

> <RelativeEnergy>
12.0445

> <POSE_NUMBER>
13

> <LibDockScore>
130.5723

> <HotSpots>
0.27,-22.52,46.78,A,23,6
-6.33,-26.32,51.98,A,57,19
-4.13,-30.52,57.38,P,71,30

$$$$
Molecule
  SciTegic05072616053D

 70 74  0  0  0  0            999 V2000
    1.1871  -26.5561   47.7854 C   0  0  0  1  0  0
    0.7914  -25.0933   48.0681 C   0  0  0  1  0  0
    1.6786  -24.1187   47.2680 C   0  0  0  1  0  0
    0.8015  -24.7826   49.5493 C   0  0  0  1  0  0
    2.0483  -24.8940   50.2053 C   0  0  0  1  0  0
    2.1906  -24.5642   51.5559 C   0  0  0  1  0  0
    1.0857  -24.1047   52.2748 C   0  0  0  1  0  0
   -0.1627  -24.0035   51.6482 C   0  0  0  1  0  0
   -0.3577  -24.3812   50.2949 C   0  0  0  1  0  0
   -1.7687  -24.3346   49.6756 C   0  0  0  1  0  0
   -1.7692  -23.3834   48.4623 C   0  0  0  1  0  0
   -0.8157  -22.6665   48.2501 O   0  0  0  1  0  0
   -2.8496  -23.3357   47.6011 N   0  0  0  1  0  0
   -3.0796  -22.2757   46.5873 C   0  0  0  1  0  0
   -2.2401  -21.2341   46.3020 N   0  0  0  1  0  0
   -2.8231  -20.5114   45.3261 C   0  0  0  1  0  0
   -4.0333  -21.1114   45.0052 C   0  0  0  1  0  0
   -4.1900  -22.2026   45.7861 N   0  0  0  1  0  0
   -5.3394  -23.1275   45.7708 C   0  0  0  1  0  0
   -2.8768  -23.7822   50.6426 C   0  0  0  1  0  0
   -3.2558  -24.6903   51.8394 C   0  0  0  1  0  0
   -3.5381  -26.0874   51.4101 N   0  0  0  1  0  0
   -4.6791  -26.7841   51.8041 C   0  0  0  1  0  0
   -4.6831  -28.1970   51.8401 C   0  0  0  1  0  0
   -5.8298  -28.9040   52.2367 C   0  0  0  1  0  0
   -6.9943  -28.2113   52.6096 C   0  0  0  1  0  0
   -8.2243  -28.9717   53.0437 C   0  0  0  1  0  0
   -8.6649  -28.6199   54.4541 C   0  0  0  1  0  0
   -9.3256  -27.6214   54.6339 O   0  0  0  1  0  0
   -8.3123  -29.4209   55.4587 O   0  0  0  1  0  0
   -8.4167  -30.4047   52.5725 C   0  0  0  1  0  0
   -9.2952  -29.3104   52.0180 C   0  0  0  1  0  0
   -7.0039  -26.8061   52.5784 C   0  0  0  1  0  0
   -5.8598  -26.0994   52.1751 C   0  0  0  1  0  0
   -2.5012  -26.6874   50.5281 C   0  0  0  1  0  0
   -2.2498  -25.7818   49.3114 C   0  0  0  1  0  0
    2.2306  -26.6997   48.0658 H   0  0
    1.0740  -26.7523   46.7192 H   0  0
    0.5528  -27.2338   48.3567 H   0  0
   -0.2357  -24.9567   47.7297 H   0  0
    1.5628  -24.3283   46.2046 H   0  0
    2.7194  -24.2757   47.5512 H   0  0
    1.3885  -23.0890   47.4769 H   0  0
    2.9163  -25.2442   49.6467 H   0  0
    3.1592  -24.6652   52.0454 H   0  0
    1.1945  -23.8250   53.3227 H   0  0
   -1.0104  -23.6228   52.2179 H   0  0
   -3.5735  -24.1206   47.6703 H   0  0
   -2.4150  -19.6107   44.8674 H   0  0
   -4.7378  -20.7613   44.2508 H   0  0
   -5.6520  -23.1190   46.8150 H   0  0
   -4.8536  -24.0915   45.6197 H   0  0
   -6.1396  -22.9136   45.0623 H   0  0
   -2.5468  -22.8192   51.0323 H   0  0
   -3.7777  -23.5857   50.0613 H   0  0
   -2.4353  -24.6973   52.5569 H   0  0
   -4.1392  -24.2841   52.3320 H   0  0
   -3.7846  -28.7449   51.5564 H   0  0
   -5.8166  -29.9938   52.2554 H   0  0
   -7.2646  -29.4728   55.4130 H   0  0
   -8.9415  -31.0036   53.3168 H   0  0
   -7.6438  -30.6990   51.8625 H   0  0
   -8.9913  -29.0214   51.0119 H   0  0
  -10.2882  -29.3249   52.4672 H   0  0
   -7.9033  -26.2629   52.8685 H   0  0
   -5.8817  -25.0100   52.1476 H   0  0
   -2.8383  -27.6659   50.1861 H   0  0
   -1.5737  -26.8048   51.0886 H   0  0
   -1.5010  -26.2522   48.6741 H   0  0
   -3.1702  -25.7108   48.7319 H   0  0
  1  2  1  0
  2  3  1  0
  2  4  1  0
  4  5  2  0
  4  9  1  0
  5  6  1  0
  6  7  2  0
  7  8  1  0
  8  9  2  0
  9 10  1  0
 10 11  1  0
 10 20  1  0
 10 36  1  0
 11 12  2  0
 11 13  1  0
 13 14  1  0
 14 15  2  0
 14 18  1  0
 15 16  1  0
 16 17  2  0
 17 18  1  0
 18 19  1  0
 20 21  1  0
 21 22  1  0
 22 23  1  0
 22 35  1  0
 23 24  2  0
 23 34  1  0
 24 25  1  0
 25 26  2  0
 26 27  1  0
 26 33  1  0
 27 28  1  0
 27 31  1  0
 27 32  1  0
 28 29  2  0
 28 30  1  0
 31 32  1  0
 33 34  2  0
 35 36  1  0
  1 37  1  0
  1 38  1  0
  1 39  1  0
  2 40  1  0
  3 41  1  0
  3 42  1  0
  3 43  1  0
  5 44  1  0
  6 45  1  0
  7 46  1  0
  8 47  1  0
 13 48  1  0
 16 49  1  0
 17 50  1  0
 19 51  1  0
 19 52  1  0
 19 53  1  0
 20 54  1  0
 20 55  1  0
 21 56  1  0
 21 57  1  0
 24 58  1  0
 25 59  1  0
 30 60  1  0
 31 61  1  0
 31 62  1  0
 32 63  1  0
 32 64  1  0
 33 65  1  0
 34 66  1  0
 35 67  1  0
 35 68  1  0
 36 69  1  0
 36 70  1  0
M  END
> <Name>
Molecule

> <AbsoluteEnergy>
45.5026

> <Clean Energy>
216.53

> <ConfNumber>
4

> <MOL_NUMBER>
7

> <RelativeEnergy>
1.72963

> <POSE_NUMBER>
14

> <LibDockScore>
130.1929

> <HotSpots>
1.67,-24.32,50.98,A,50,6
-3.53,-20.52,45.19,A,12,16
-6.33,-26.32,51.98,A,57,34

$$$$
Molecule
  SciTegic05072616053D

 70 74  0  0  0  0            999 V2000
    1.1385  -25.6115   47.9105 C   0  0  0  1  0  0
    0.3646  -24.4064   48.4996 C   0  0  0  1  0  0
    0.9158  -23.1203   47.8523 C   0  0  0  1  0  0
    0.3260  -24.3224   50.0213 C   0  0  0  1  0  0
    1.5824  -24.2698   50.6812 C   0  0  0  1  0  0
    1.6930  -24.1738   52.0680 C   0  0  0  1  0  0
    0.5427  -24.1051   52.8460 C   0  0  0  1  0  0
   -0.7099  -24.1466   52.2316 C   0  0  0  1  0  0
   -0.8792  -24.2827   50.8235 C   0  0  0  1  0  0
   -2.3458  -24.3406   50.2988 C   0  0  0  1  0  0
   -2.4875  -23.2954   49.1701 C   0  0  0  1  0  0
   -1.7972  -22.3029   49.1805 O   0  0  0  1  0  0
   -3.3960  -23.4651   48.1482 N   0  0  0  1  0  0
   -3.6548  -22.5895   46.9710 C   0  0  0  1  0  0
   -4.8595  -22.6486   46.3284 N   0  0  0  1  0  0
   -4.8334  -21.7470   45.3300 C   0  0  0  1  0  0
   -3.5924  -21.1299   45.3399 C   0  0  0  1  0  0
   -2.8492  -21.6598   46.3408 N   0  0  0  1  0  0
   -1.4504  -21.2815   46.6116 C   0  0  0  1  0  0
   -2.7462  -25.7777   49.8182 C   0  0  0  1  0  0
   -4.2402  -26.1554   49.7216 C   0  0  0  1  0  0
   -5.0013  -25.7827   50.9420 N   0  0  0  1  0  0
   -5.8224  -26.6742   51.6357 C   0  0  0  1  0  0
   -7.0018  -26.2196   52.2729 C   0  0  0  1  0  0
   -7.8256  -27.1041   52.9870 C   0  0  0  1  0  0
   -7.4960  -28.4677   53.0708 C   0  0  0  1  0  0
   -8.3756  -29.4208   53.8517 C   0  0  0  1  0  0
   -8.0731  -29.4451   55.3519 C   0  0  0  1  0  0
   -8.9512  -29.7608   56.1208 O   0  0  0  1  0  0
   -6.8542  -29.1240   55.7954 O   0  0  0  1  0  0
   -8.7947  -30.7239   53.1859 C   0  0  0  1  0  0
   -9.8163  -29.6339   53.4060 C   0  0  0  1  0  0
   -6.3368  -28.9377   52.4284 C   0  0  0  1  0  0
   -5.5053  -28.0501   51.7251 C   0  0  0  1  0  0
   -4.8297  -24.3699   51.3595 C   0  0  0  1  0  0
   -3.3436  -23.9849   51.4705 C   0  0  0  1  0  0
    2.2013  -25.5212   48.1352 H   0  0
    0.9931  -25.6596   46.8313 H   0  0
    0.7587  -26.5290   48.3599 H   0  0
   -0.6870  -24.5469   48.2495 H   0  0
    0.7688  -23.1507   46.7727 H   0  0
    1.9770  -23.0122   48.0766 H   0  0
    0.3793  -22.2627   48.2583 H   0  0
    2.4925  -24.3057   50.0825 H   0  0
    2.6756  -24.1527   52.5394 H   0  0
    0.6187  -24.0193   53.9300 H   0  0
   -1.5991  -24.0715   52.8576 H   0  0
   -3.9986  -24.3472   48.2084 H   0  0
   -5.6464  -21.5383   44.6347 H   0  0
   -3.2678  -20.3468   44.6548 H   0  0
   -0.9639  -22.2561   46.5726 H   0  0
   -1.5057  -21.0406   47.6732 H   0  0
   -0.9900  -20.5135   45.9901 H   0  0
   -2.2962  -25.9422   48.8392 H   0  0
   -2.2612  -26.5000   50.4748 H   0  0
   -4.6803  -25.6506   48.8616 H   0  0
   -4.3273  -27.2305   49.5645 H   0  0
   -7.2747  -25.1663   52.2081 H   0  0
   -8.7245  -26.7317   53.4784 H   0  0
   -6.6768  -28.1641   55.4085 H   0  0
   -8.9017  -31.5284   53.9135 H   0  0
   -8.4674  -30.7648   52.1470 H   0  0
  -10.0336  -29.0941   52.4843 H   0  0
  -10.4669  -29.8568   54.2517 H   0  0
   -6.0820  -29.9964   52.4763 H   0  0
   -4.6037  -28.4266   51.2418 H   0  0
   -5.3104  -24.2212   52.3264 H   0  0
   -5.3136  -23.7205   50.6300 H   0  0
   -3.2920  -22.9095   51.6405 H   0  0
   -2.9544  -24.4273   52.3875 H   0  0
  1  2  1  0
  2  3  1  0
  2  4  1  0
  4  5  2  0
  4  9  1  0
  5  6  1  0
  6  7  2  0
  7  8  1  0
  8  9  2  0
  9 10  1  0
 10 11  1  0
 10 20  1  0
 10 36  1  0
 11 12  2  0
 11 13  1  0
 13 14  1  0
 14 15  2  0
 14 18  1  0
 15 16  1  0
 16 17  2  0
 17 18  1  0
 18 19  1  0
 20 21  1  0
 21 22  1  0
 22 23  1  0
 22 35  1  0
 23 24  2  0
 23 34  1  0
 24 25  1  0
 25 26  2  0
 26 27  1  0
 26 33  1  0
 27 28  1  0
 27 31  1  0
 27 32  1  0
 28 29  2  0
 28 30  1  0
 31 32  1  0
 33 34  2  0
 35 36  1  0
  1 37  1  0
  1 38  1  0
  1 39  1  0
  2 40  1  0
  3 41  1  0
  3 42  1  0
  3 43  1  0
  5 44  1  0
  6 45  1  0
  7 46  1  0
  8 47  1  0
 13 48  1  0
 16 49  1  0
 17 50  1  0
 19 51  1  0
 19 52  1  0
 19 53  1  0
 20 54  1  0
 20 55  1  0
 21 56  1  0
 21 57  1  0
 24 58  1  0
 25 59  1  0
 30 60  1  0
 31 61  1  0
 31 62  1  0
 32 63  1  0
 32 64  1  0
 33 65  1  0
 34 66  1  0
 35 67  1  0
 35 68  1  0
 36 69  1  0
 36 70  1  0
M  END
> <Name>
Molecule

> <AbsoluteEnergy>
62.9585

> <Clean Energy>
216.53

> <ConfNumber>
86

> <MOL_NUMBER>
7

> <RelativeEnergy>
19.1855

> <POSE_NUMBER>
15

> <LibDockScore>
129.9643

> <HotSpots>
0.47,-23.32,53.78,A,67,7
-2.53,-21.12,45.98,A,16,17
-9.53,-30.12,52.78,A,62,32

$$$$
Molecule
  SciTegic05072616053D

 70 74  0  0  0  0            999 V2000
   -4.8238  -24.6484   46.5736 C   0  0  0  1  0  0
   -3.7632  -24.1788   47.5897 C   0  0  0  1  0  0
   -2.9239  -23.0110   47.0361 C   0  0  0  1  0  0
   -4.3805  -23.8525   48.9312 C   0  0  0  1  0  0
   -5.3389  -22.8138   48.9487 C   0  0  0  1  0  0
   -6.0302  -22.4814   50.1181 C   0  0  0  1  0  0
   -5.7693  -23.1814   51.2976 C   0  0  0  1  0  0
   -4.8001  -24.1911   51.3142 C   0  0  0  1  0  0
   -4.0576  -24.5330   50.1517 C   0  0  0  1  0  0
   -2.9633  -25.6060   50.2415 C   0  0  0  1  0  0
   -1.6814  -25.1909   49.5085 C   0  0  0  1  0  0
   -1.4573  -25.6467   48.4163 O   0  0  0  1  0  0
   -0.7920  -24.3237   50.1137 N   0  0  0  1  0  0
    0.6519  -24.1279   49.8161 C   0  0  0  1  0  0
    1.4966  -23.6734   50.7896 N   0  0  0  1  0  0
    2.7361  -23.6517   50.2701 C   0  0  0  1  0  0
    2.6564  -24.0636   48.9502 C   0  0  0  1  0  0
    1.3655  -24.3357   48.6531 N   0  0  0  1  0  0
    0.9029  -24.7497   47.3155 C   0  0  0  1  0  0
   -2.4579  -25.8722   51.7080 C   0  0  0  1  0  0
   -1.4879  -27.0645   51.7857 C   0  0  0  1  0  0
   -2.2764  -28.2447   51.3570 N   0  0  0  1  0  0
   -2.7748  -29.1598   52.2709 C   0  0  0  1  0  0
   -3.7360  -30.1196   51.8776 C   0  0  0  1  0  0
   -4.4568  -30.8311   52.8471 C   0  0  0  1  0  0
   -4.2201  -30.5808   54.2084 C   0  0  0  1  0  0
   -5.1914  -31.0792   55.2437 C   0  0  0  1  0  0
   -6.4461  -30.1929   55.2553 C   0  0  0  1  0  0
   -7.5155  -30.6760   55.5467 O   0  0  0  1  0  0
   -6.3334  -28.8924   54.9416 O   0  0  0  1  0  0
   -4.6626  -31.6699   56.5418 C   0  0  0  1  0  0
   -5.3224  -32.5689   55.5208 C   0  0  0  1  0  0
   -3.1118  -29.8094   54.5967 C   0  0  0  1  0  0
   -2.3826  -29.1092   53.6276 C   0  0  0  1  0  0
   -2.6449  -28.2016   49.9228 C   0  0  0  1  0  0
   -3.5444  -26.9609   49.6930 C   0  0  0  1  0  0
   -4.3154  -24.9641   45.6626 H   0  0
   -5.4773  -23.8076   46.3408 H   0  0
   -5.4058  -25.4737   46.9839 H   0  0
   -3.0778  -25.0105   47.7527 H   0  0
   -3.5936  -22.1843   46.7993 H   0  0
   -2.4318  -23.3408   46.1211 H   0  0
   -2.1813  -22.6944   47.7685 H   0  0
   -5.5434  -22.2606   48.0321 H   0  0
   -6.7689  -21.6799   50.1087 H   0  0
   -6.3210  -22.9413   52.2065 H   0  0
   -4.6099  -24.7291   52.2429 H   0  0
   -1.1936  -23.7151   50.8968 H   0  0
    3.6454  -23.3607   50.7959 H   0  0
    3.4974  -24.1538   48.2627 H   0  0
    0.1303  -24.0040   47.1280 H   0  0
    0.3561  -25.6597   47.5624 H   0  0
    1.6400  -24.8579   46.5198 H   0  0
   -1.9540  -24.9797   52.0789 H   0  0
   -3.3154  -26.0698   52.3512 H   0  0
   -0.6510  -26.9081   51.1051 H   0  0
   -1.1436  -27.1989   52.8111 H   0  0
   -3.9168  -30.3065   50.8191 H   0  0
   -5.1959  -31.5735   52.5462 H   0  0
   -5.8941  -28.8805   53.9880 H   0  0
   -5.3276  -31.4567   57.3787 H   0  0
   -3.5773  -31.7690   56.5229 H   0  0
   -4.5878  -33.1466   54.9598 H   0  0
   -6.3383  -32.8330   55.8147 H   0  0
   -2.8213  -29.7563   55.6459 H   0  0
   -1.5108  -28.5240   53.9203 H   0  0
   -3.1934  -29.1051   49.6565 H   0  0
   -1.7441  -28.1179   49.3148 H   0  0
   -3.7256  -26.8566   48.6232 H   0  0
   -4.5117  -27.1412   50.1620 H   0  0
  1  2  1  0
  2  3  1  0
  2  4  1  0
  4  5  2  0
  4  9  1  0
  5  6  1  0
  6  7  2  0
  7  8  1  0
  8  9  2  0
  9 10  1  0
 10 11  1  0
 10 20  1  0
 10 36  1  0
 11 12  2  0
 11 13  1  0
 13 14  1  0
 14 15  2  0
 14 18  1  0
 15 16  1  0
 16 17  2  0
 17 18  1  0
 18 19  1  0
 20 21  1  0
 21 22  1  0
 22 23  1  0
 22 35  1  0
 23 24  2  0
 23 34  1  0
 24 25  1  0
 25 26  2  0
 26 27  1  0
 26 33  1  0
 27 28  1  0
 27 31  1  0
 27 32  1  0
 28 29  2  0
 28 30  1  0
 31 32  1  0
 33 34  2  0
 35 36  1  0
  1 37  1  0
  1 38  1  0
  1 39  1  0
  2 40  1  0
  3 41  1  0
  3 42  1  0
  3 43  1  0
  5 44  1  0
  6 45  1  0
  7 46  1  0
  8 47  1  0
 13 48  1  0
 16 49  1  0
 17 50  1  0
 19 51  1  0
 19 52  1  0
 19 53  1  0
 20 54  1  0
 20 55  1  0
 21 56  1  0
 21 57  1  0
 24 58  1  0
 25 59  1  0
 30 60  1  0
 31 61  1  0
 31 62  1  0
 32 63  1  0
 32 64  1  0
 33 65  1  0
 34 66  1  0
 35 67  1  0
 35 68  1  0
 36 69  1  0
 36 70  1  0
M  END
> <Name>
Molecule

> <AbsoluteEnergy>
58.4469

> <Clean Energy>
216.53

> <ConfNumber>
51

> <MOL_NUMBER>
7

> <RelativeEnergy>
14.6739

> <POSE_NUMBER>
16

> <LibDockScore>
127.6506

> <HotSpots>
-5.53,-22.92,48.98,A,33,6
2.67,-22.92,49.98,A,39,16
2.67,-23.92,48.98,A,32,17

$$$$
Molecule
  SciTegic05072616053D

 70 74  0  0  0  0            999 V2000
   -6.3296  -23.1259   50.7649 C   0  0  0  1  0  0
   -4.8065  -23.0500   50.5388 C   0  0  0  1  0  0
   -4.2807  -21.6218   50.7844 C   0  0  0  1  0  0
   -4.4065  -23.5714   49.1738 C   0  0  0  1  0  0
   -4.9236  -22.8763   48.0593 C   0  0  0  1  0  0
   -4.6002  -23.2545   46.7525 C   0  0  0  1  0  0
   -3.7445  -24.3369   46.5367 C   0  0  0  1  0  0
   -3.2237  -25.0460   47.6266 C   0  0  0  1  0  0
   -3.5480  -24.7018   48.9625 C   0  0  0  1  0  0
   -2.9831  -25.5280   50.1255 C   0  0  0  1  0  0
   -1.7587  -24.8506   50.7740 C   0  0  0  1  0  0
   -1.8147  -24.6040   51.9547 O   0  0  0  1  0  0
   -0.6330  -24.5228   50.0303 N   0  0  0  1  0  0
    0.7844  -24.3869   50.4793 C   0  0  0  1  0  0
    1.7591  -23.9733   49.6062 N   0  0  0  1  0  0
    2.9202  -23.9211   50.2858 C   0  0  0  1  0  0
    2.6728  -24.3171   51.5889 C   0  0  0  1  0  0
    1.3596  -24.6203   51.7146 N   0  0  0  1  0  0
    0.7523  -25.1172   52.9630 C   0  0  0  1  0  0
   -2.4236  -26.9515   49.7207 C   0  0  0  1  0  0
   -3.4669  -28.0833   49.5221 C   0  0  0  1  0  0
   -4.3879  -28.0863   50.6809 N   0  0  0  1  0  0
   -4.4192  -29.0604   51.6730 C   0  0  0  1  0  0
   -3.2606  -29.8214   51.9470 C   0  0  0  1  0  0
   -3.1877  -30.6070   53.1060 C   0  0  0  1  0  0
   -4.2725  -30.6411   53.9970 C   0  0  0  1  0  0
   -4.0983  -31.2505   55.3661 C   0  0  0  1  0  0
   -3.3839  -30.2825   56.3202 C   0  0  0  1  0  0
   -3.8278  -30.1254   57.4343 O   0  0  0  1  0  0
   -2.2904  -29.6138   55.9219 O   0  0  0  1  0  0
   -5.1731  -32.1841   55.9024 C   0  0  0  1  0  0
   -3.8257  -32.7401   55.5076 C   0  0  0  1  0  0
   -5.4988  -30.0623   53.6279 C   0  0  0  1  0  0
   -5.5739  -29.2785   52.4627 C   0  0  0  1  0  0
   -5.1531  -26.8285   50.7890 C   0  0  0  1  0  0
   -4.1369  -25.7402   51.1763 C   0  0  0  1  0  0
   -6.8214  -22.4340   50.0812 H   0  0
   -6.5480  -22.8286   51.7906 H   0  0
   -6.6865  -24.1405   50.5878 H   0  0
   -4.3354  -23.7059   51.2710 H   0  0
   -4.5116  -21.3337   51.8100 H   0  0
   -4.7850  -20.9391   50.1005 H   0  0
   -3.2037  -21.5837   50.6209 H   0  0
   -5.5884  -22.0277   48.2206 H   0  0
   -5.0142  -22.7068   45.9059 H   0  0
   -3.4819  -24.6299   45.5202 H   0  0
   -2.5516  -25.8842   47.4425 H   0  0
   -0.8054  -24.3423   48.9898 H   0  0
    3.8862  -23.6197   49.8807 H   0  0
    3.4152  -24.3753   52.3849 H   0  0
    0.2844  -26.0365   52.6108 H   0  0
   -0.0719  -24.4141   53.0832 H   0  0
    1.3885  -25.2330   53.8404 H   0  0
   -1.8521  -26.8472   48.7984 H   0  0
   -1.7122  -27.2720   50.4818 H   0  0
   -4.0317  -27.9031   48.6074 H   0  0
   -2.9569  -29.0446   49.4589 H   0  0
   -2.4196  -29.7976   51.2541 H   0  0
   -2.2908  -31.1901   53.3150 H   0  0
   -2.5977  -29.1048   55.0565 H   0  0
   -5.9318  -32.3955   55.1489 H   0  0
   -5.2720  -32.0995   56.9846 H   0  0
   -3.2072  -32.9527   56.3796 H   0  0
   -3.8665  -33.2471   54.5436 H   0  0
   -6.3862  -30.2199   54.2409 H   0  0
   -6.5253  -28.8369   52.1662 H   0  0
   -5.9118  -26.9193   51.5663 H   0  0
   -5.6070  -26.5856   49.8282 H   0  0
   -4.6683  -24.7981   51.3113 H   0  0
   -3.6935  -26.0019   52.1370 H   0  0
  1  2  1  0
  2  3  1  0
  2  4  1  0
  4  5  2  0
  4  9  1  0
  5  6  1  0
  6  7  2  0
  7  8  1  0
  8  9  2  0
  9 10  1  0
 10 11  1  0
 10 20  1  0
 10 36  1  0
 11 12  2  0
 11 13  1  0
 13 14  1  0
 14 15  2  0
 14 18  1  0
 15 16  1  0
 16 17  2  0
 17 18  1  0
 18 19  1  0
 20 21  1  0
 21 22  1  0
 22 23  1  0
 22 35  1  0
 23 24  2  0
 23 34  1  0
 24 25  1  0
 25 26  2  0
 26 27  1  0
 26 33  1  0
 27 28  1  0
 27 31  1  0
 27 32  1  0
 28 29  2  0
 28 30  1  0
 31 32  1  0
 33 34  2  0
 35 36  1  0
  1 37  1  0
  1 38  1  0
  1 39  1  0
  2 40  1  0
  3 41  1  0
  3 42  1  0
  3 43  1  0
  5 44  1  0
  6 45  1  0
  7 46  1  0
  8 47  1  0
 13 48  1  0
 16 49  1  0
 17 50  1  0
 19 51  1  0
 19 52  1  0
 19 53  1  0
 20 54  1  0
 20 55  1  0
 21 56  1  0
 21 57  1  0
 24 58  1  0
 25 59  1  0
 30 60  1  0
 31 61  1  0
 31 62  1  0
 32 63  1  0
 32 64  1  0
 33 65  1  0
 34 66  1  0
 35 67  1  0
 35 68  1  0
 36 69  1  0
 36 70  1  0
M  END
> <Name>
Molecule

> <AbsoluteEnergy>
58.2792

> <Clean Energy>
216.53

> <ConfNumber>
49

> <MOL_NUMBER>
7

> <RelativeEnergy>
14.5062

> <POSE_NUMBER>
17

> <LibDockScore>
127.2279

> <HotSpots>
-2.53,-22.32,48.19,A,29,5
4.07,-23.72,49.78,A,37,16
-2.33,-30.12,55.19,P,60,30

$$$$
Molecule
  SciTegic05072616053D

 70 74  0  0  0  0            999 V2000
    1.1814  -26.2006   47.6983 C   0  0  0  1  0  0
    0.7252  -24.7902   48.1211 C   0  0  0  1  0  0
    1.5583  -23.7058   47.4090 C   0  0  0  1  0  0
    0.7404  -24.6197   49.6249 C   0  0  0  1  0  0
    2.0009  -24.7237   50.2555 C   0  0  0  1  0  0
    2.1451  -24.5148   51.6297 C   0  0  0  1  0  0
    1.0279  -24.1859   52.3994 C   0  0  0  1  0  0
   -0.2332  -24.0949   51.7972 C   0  0  0  1  0  0
   -0.4276  -24.3541   50.4161 C   0  0  0  1  0  0
   -1.8479  -24.3270   49.8176 C   0  0  0  1  0  0
   -1.8934  -23.3328   48.6400 C   0  0  0  1  0  0
   -0.9714  -22.5696   48.4514 O   0  0  0  1  0  0
   -2.9788  -23.2987   47.7845 N   0  0  0  1  0  0
   -3.1958  -22.2756   46.7307 C   0  0  0  1  0  0
   -2.3908  -21.2011   46.4690 N   0  0  0  1  0  0
   -2.9461  -20.5312   45.4407 C   0  0  0  1  0  0
   -4.1043  -21.1973   45.0633 C   0  0  0  1  0  0
   -4.2569  -22.2761   45.8621 N   0  0  0  1  0  0
   -5.3579  -23.2563   45.8019 C   0  0  0  1  0  0
   -2.9578  -23.8430   50.8186 C   0  0  0  1  0  0
   -3.2932  -24.8046   51.9862 C   0  0  0  1  0  0
   -3.5407  -26.1930   51.5098 N   0  0  0  1  0  0
   -4.6553  -26.9371   51.8930 C   0  0  0  1  0  0
   -4.5729  -28.3421   52.0222 C   0  0  0  1  0  0
   -5.6926  -29.0966   52.4084 C   0  0  0  1  0  0
   -6.9161  -28.4598   52.6775 C   0  0  0  1  0  0
   -8.1175  -29.2705   53.1006 C   0  0  0  1  0  0
   -8.2826  -29.3324   54.6092 C   0  0  0  1  0  0
   -8.9538  -28.4914   55.1641 O   0  0  0  1  0  0
   -7.6834  -30.3126   55.2840 O   0  0  0  1  0  0
   -8.5108  -30.4949   52.2888 C   0  0  0  1  0  0
   -9.3709  -29.2561   52.2389 C   0  0  0  1  0  0
   -7.0118  -27.0630   52.5530 C   0  0  0  1  0  0
   -5.8943  -26.3095   52.1601 C   0  0  0  1  0  0
   -2.4994  -26.7297   50.5929 C   0  0  0  1  0  0
   -2.2918  -25.7736   49.4070 C   0  0  0  1  0  0
    2.2337  -26.3227   47.9550 H   0  0
    1.0635  -26.3008   46.6193 H   0  0
    0.5849  -26.9569   48.2085 H   0  0
   -0.3112  -24.6690   47.8059 H   0  0
    1.4383  -23.8197   46.3316 H   0  0
    2.6085  -23.8416   47.6673 H   0  0
    1.2257  -22.7144   47.7166 H   0  0
    2.8782  -24.9718   49.6580 H   0  0
    3.1249  -24.6082   52.0982 H   0  0
    1.1370  -24.0001   53.4679 H   0  0
   -1.0917  -23.8164   52.4084 H   0  0
   -3.7169  -24.0662   47.8895 H   0  0
   -2.5538  -19.6227   44.9837 H   0  0
   -4.7768  -20.9001   44.2586 H   0  0
   -5.7344  -23.2384   46.8247 H   0  0
   -4.8184  -24.1986   45.7062 H   0  0
   -6.1221  -23.0988   45.0408 H   0  0
   -2.6505  -22.8854   51.2389 H   0  0
   -3.8721  -23.6523   50.2567 H   0  0
   -2.4628  -24.8132   52.6922 H   0  0
   -4.1810  -24.4429   52.5049 H   0  0
   -3.6281  -28.8465   51.8195 H   0  0
   -5.6124  -30.1798   52.4997 H   0  0
   -6.6658  -30.2325   55.0379 H   0  0
   -8.9534  -31.2670   52.9181 H   0  0
   -7.8968  -30.5949   51.3938 H   0  0
   -9.2161  -28.6957   51.3169 H   0  0
  -10.2718  -29.3670   52.8424 H   0  0
   -7.9574  -26.5629   52.7623 H   0  0
   -5.9826  -25.2277   52.0597 H   0  0
   -2.8127  -27.7047   50.2197 H   0  0
   -1.5610  -26.8398   51.1365 H   0  0
   -1.5388  -26.1983   48.7431 H   0  0
   -3.2221  -25.7090   48.8426 H   0  0
  1  2  1  0
  2  3  1  0
  2  4  1  0
  4  5  2  0
  4  9  1  0
  5  6  1  0
  6  7  2  0
  7  8  1  0
  8  9  2  0
  9 10  1  0
 10 11  1  0
 10 20  1  0
 10 36  1  0
 11 12  2  0
 11 13  1  0
 13 14  1  0
 14 15  2  0
 14 18  1  0
 15 16  1  0
 16 17  2  0
 17 18  1  0
 18 19  1  0
 20 21  1  0
 21 22  1  0
 22 23  1  0
 22 35  1  0
 23 24  2  0
 23 34  1  0
 24 25  1  0
 25 26  2  0
 26 27  1  0
 26 33  1  0
 27 28  1  0
 27 31  1  0
 27 32  1  0
 28 29  2  0
 28 30  1  0
 31 32  1  0
 33 34  2  0
 35 36  1  0
  1 37  1  0
  1 38  1  0
  1 39  1  0
  2 40  1  0
  3 41  1  0
  3 42  1  0
  3 43  1  0
  5 44  1  0
  6 45  1  0
  7 46  1  0
  8 47  1  0
 13 48  1  0
 16 49  1  0
 17 50  1  0
 19 51  1  0
 19 52  1  0
 19 53  1  0
 20 54  1  0
 20 55  1  0
 21 56  1  0
 21 57  1  0
 24 58  1  0
 25 59  1  0
 30 60  1  0
 31 61  1  0
 31 62  1  0
 32 63  1  0
 32 64  1  0
 33 65  1  0
 34 66  1  0
 35 67  1  0
 35 68  1  0
 36 69  1  0
 36 70  1  0
M  END
> <Name>
Molecule

> <AbsoluteEnergy>
45.5026

> <Clean Energy>
216.53

> <ConfNumber>
4

> <MOL_NUMBER>
7

> <RelativeEnergy>
1.72963

> <POSE_NUMBER>
18

> <LibDockScore>
126.9678

> <HotSpots>
0.87,-24.32,52.78,A,63,7
-5.13,-22.92,46.19,A,18,19
-8.53,-31.32,51.19,A,51,31

$$$$
Molecule
  SciTegic05072616053D

 70 74  0  0  0  0            999 V2000
   -1.8403  -28.0579   54.8009 C   0  0  0  1  0  0
   -2.4317  -27.7883   53.4027 C   0  0  0  1  0  0
   -2.0804  -28.9239   52.4240 C   0  0  0  1  0  0
   -2.0248  -26.4261   52.8735 C   0  0  0  1  0  0
   -0.6849  -26.0558   53.1247 C   0  0  0  1  0  0
   -0.1859  -24.8045   52.7505 C   0  0  0  1  0  0
   -1.0232  -23.8920   52.1117 C   0  0  0  1  0  0
   -2.3521  -24.2393   51.8323 C   0  0  0  1  0  0
   -2.8879  -25.5202   52.1639 C   0  0  0  1  0  0
   -4.3360  -25.8719   51.7664 C   0  0  0  1  0  0
   -4.7886  -25.2125   50.4448 C   0  0  0  1  0  0
   -5.8044  -24.5562   50.4112 O   0  0  0  1  0  0
   -4.0475  -25.3685   49.2855 N   0  0  0  1  0  0
   -4.2784  -24.5980   48.0401 C   0  0  0  1  0  0
   -4.9788  -23.4273   47.9563 N   0  0  0  1  0  0
   -5.0240  -23.0860   46.6551 C   0  0  0  1  0  0
   -4.3125  -24.0340   45.9336 C   0  0  0  1  0  0
   -3.8338  -24.9597   46.7932 N   0  0  0  1  0  0
   -2.9881  -26.1142   46.4283 C   0  0  0  1  0  0
   -5.3264  -25.3842   52.8844 C   0  0  0  1  0  0
   -6.7833  -25.8969   52.7581 C   0  0  0  1  0  0
   -6.8579  -27.3545   52.4378 N   0  0  0  1  0  0
   -7.6691  -28.2460   53.1460 C   0  0  0  1  0  0
   -8.4708  -27.8124   54.2291 C   0  0  0  1  0  0
   -9.2645  -28.7212   54.9502 C   0  0  0  1  0  0
   -9.2842  -30.0835   54.5997 C   0  0  0  1  0  0
  -10.1141  -31.0680   55.4023 C   0  0  0  1  0  0
  -11.4350  -31.4807   54.7489 C   0  0  0  1  0  0
  -11.8678  -32.5935   54.9635 O   0  0  0  1  0  0
  -12.0975  -30.6230   53.9710 O   0  0  0  1  0  0
  -10.0968  -30.9358   56.9176 C   0  0  0  1  0  0
   -9.3876  -32.0961   56.2654 C   0  0  0  1  0  0
   -8.5165  -30.5207   53.5062 C   0  0  0  1  0  0
   -7.7117  -29.6166   52.7963 C   0  0  0  1  0  0
   -6.0100  -27.7758   51.2854 C   0  0  0  1  0  0
   -4.5339  -27.4106   51.5204 C   0  0  0  1  0  0
   -0.7570  -28.1418   54.7138 H   0  0
   -2.2412  -28.9994   55.1762 H   0  0
   -2.0972  -27.2463   55.4817 H   0  0
   -3.5173  -27.7705   53.4985 H   0  0
   -2.4798  -29.8600   52.8143 H   0  0
   -0.9956  -29.0023   52.3519 H   0  0
   -2.5049  -28.7193   51.4411 H   0  0
   -0.0229  -26.7639   53.6232 H   0  0
    0.8522  -24.5442   52.9573 H   0  0
   -0.6452  -22.9093   51.8296 H   0  0
   -2.9973  -23.5076   51.3461 H   0  0
   -3.2582  -26.0909   49.2887 H   0  0
   -5.5317  -22.2154   46.2399 H   0  0
   -4.1646  -24.0321   44.8537 H   0  0
   -3.5488  -26.9432   46.8601 H   0  0
   -2.1296  -25.9747   47.0852 H   0  0
   -2.7351  -26.2403   45.3756 H   0  0
   -5.3422  -24.2943   52.8848 H   0  0
   -4.9344  -25.6912   53.8540 H   0  0
   -7.2917  -25.3362   51.9737 H   0  0
   -7.3072  -25.7137   53.6962 H   0  0
   -8.4727  -26.7587   54.5079 H   0  0
   -9.8684  -28.3682   55.7861 H   0  0
  -11.4028  -30.3464   53.2339 H   0  0
  -11.0470  -31.2400   57.3567 H   0  0
   -9.3961  -30.1672   57.2436 H   0  0
   -8.3082  -31.9463   56.2408 H   0  0
   -9.9606  -33.0192   56.3524 H   0  0
   -8.5466  -31.5686   53.2079 H   0  0
   -7.1095  -29.9759   51.9618 H   0  0
   -6.0960  -28.8541   51.1517 H   0  0
   -6.3619  -27.2816   50.3799 H   0  0
   -3.9503  -27.7109   50.6502 H   0  0
   -4.1647  -27.9617   52.3853 H   0  0
  1  2  1  0
  2  3  1  0
  2  4  1  0
  4  5  2  0
  4  9  1  0
  5  6  1  0
  6  7  2  0
  7  8  1  0
  8  9  2  0
  9 10  1  0
 10 11  1  0
 10 20  1  0
 10 36  1  0
 11 12  2  0
 11 13  1  0
 13 14  1  0
 14 15  2  0
 14 18  1  0
 15 16  1  0
 16 17  2  0
 17 18  1  0
 18 19  1  0
 20 21  1  0
 21 22  1  0
 22 23  1  0
 22 35  1  0
 23 24  2  0
 23 34  1  0
 24 25  1  0
 25 26  2  0
 26 27  1  0
 26 33  1  0
 27 28  1  0
 27 31  1  0
 27 32  1  0
 28 29  2  0
 28 30  1  0
 31 32  1  0
 33 34  2  0
 35 36  1  0
  1 37  1  0
  1 38  1  0
  1 39  1  0
  2 40  1  0
  3 41  1  0
  3 42  1  0
  3 43  1  0
  5 44  1  0
  6 45  1  0
  7 46  1  0
  8 47  1  0
 13 48  1  0
 16 49  1  0
 17 50  1  0
 19 51  1  0
 19 52  1  0
 19 53  1  0
 20 54  1  0
 20 55  1  0
 21 56  1  0
 21 57  1  0
 24 58  1  0
 25 59  1  0
 30 60  1  0
 31 61  1  0
 31 62  1  0
 32 63  1  0
 32 64  1  0
 33 65  1  0
 34 66  1  0
 35 67  1  0
 35 68  1  0
 36 69  1  0
 36 70  1  0
M  END
> <Name>
Molecule

> <AbsoluteEnergy>
51.2582

> <Clean Energy>
216.53

> <ConfNumber>
12

> <MOL_NUMBER>
7

> <RelativeEnergy>
7.48519

> <POSE_NUMBER>
19

> <LibDockScore>
126.8578

> <HotSpots>
0.87,-24.32,52.78,A,63,6
-4.53,-24.52,46.19,A,17,16
-8.73,-28.12,54.38,A,70,25

$$$$
Molecule
  SciTegic05072616053D

 70 74  0  0  0  0            999 V2000
    0.3600  -26.5615   53.7488 C   0  0  0  1  0  0
   -1.1282  -26.7459   53.3904 C   0  0  0  1  0  0
   -1.8808  -25.4035   53.4405 C   0  0  0  1  0  0
   -1.7864  -27.8071   54.2518 C   0  0  0  1  0  0
   -1.0882  -28.1458   55.4322 C   0  0  0  1  0  0
   -1.5424  -29.1505   56.2919 C   0  0  0  1  0  0
   -2.7133  -29.8412   55.9863 C   0  0  0  1  0  0
   -3.4373  -29.5135   54.8316 C   0  0  0  1  0  0
   -3.0272  -28.4688   53.9494 C   0  0  0  1  0  0
   -3.9029  -28.1044   52.7332 C   0  0  0  1  0  0
   -5.2043  -28.9318   52.6421 C   0  0  0  1  0  0
   -5.2724  -29.8739   51.8862 O   0  0  0  1  0  0
   -6.3068  -28.6045   53.4134 N   0  0  0  1  0  0
   -7.6767  -29.1149   53.1660 C   0  0  0  1  0  0
   -8.0623  -29.8385   52.0725 N   0  0  0  1  0  0
   -9.3874  -30.0466   52.1835 C   0  0  0  1  0  0
   -9.8167  -29.4797   53.3751 C   0  0  0  1  0  0
   -8.7539  -28.9200   53.9934 N   0  0  0  1  0  0
   -8.7810  -28.2502   55.3094 C   0  0  0  1  0  0
   -3.1020  -28.3627   51.4063 C   0  0  0  1  0  0
   -3.7461  -27.7977   50.1150 C   0  0  0  1  0  0
   -4.2568  -26.4038   50.2854 N   0  0  0  1  0  0
   -3.9607  -25.3728   49.3890 C   0  0  0  1  0  0
   -3.1972  -25.6083   48.2205 C   0  0  0  1  0  0
   -2.8844  -24.5600   47.3379 C   0  0  0  1  0  0
   -3.3360  -23.2528   47.5962 C   0  0  0  1  0  0
   -2.9666  -22.1169   46.6606 C   0  0  0  1  0  0
   -4.1089  -21.6139   45.7751 C   0  0  0  1  0  0
   -4.0216  -20.5076   45.2849 O   0  0  0  1  0  0
   -5.1696  -22.3884   45.5410 O   0  0  0  1  0  0
   -1.5690  -22.1224   46.0604 C   0  0  0  1  0  0
   -1.9174  -21.1087   47.1213 C   0  0  0  1  0  0
   -4.1216  -23.0124   48.7370 C   0  0  0  1  0  0
   -4.4204  -24.0557   49.6266 C   0  0  0  1  0  0
   -5.1265  -26.2086   51.4812 C   0  0  0  1  0  0
   -4.3930  -26.6126   52.7721 C   0  0  0  1  0  0
    0.4302  -26.1417   54.7523 H   0  0
    0.8084  -25.8657   53.0397 H   0  0
    0.8788  -27.5193   53.7090 H   0  0
   -1.1807  -27.1060   52.3629 H   0  0
   -1.4183  -24.7150   52.7333 H   0  0
   -1.7965  -24.9909   54.4459 H   0  0
   -2.9303  -25.5499   53.1851 H   0  0
   -0.1717  -27.6100   55.6792 H   0  0
   -0.9837  -29.3921   57.1961 H   0  0
   -3.0659  -30.6354   56.6444 H   0  0
   -4.3427  -30.0745   54.5998 H   0  0
   -6.1609  -27.9413   54.2403 H   0  0
  -10.0149  -30.5700   51.4621 H   0  0
  -10.8403  -29.4851   53.7496 H   0  0
   -8.3341  -27.2843   55.0741 H   0  0
   -8.0109  -28.7989   55.8516 H   0  0
   -9.7398  -28.1904   55.8244 H   0  0
   -2.9675  -29.4374   51.2840 H   0  0
   -2.1057  -27.9334   51.5125 H   0  0
   -4.5726  -28.4429   49.8172 H   0  0
   -3.0060  -27.8078   49.3148 H   0  0
   -2.8468  -26.6171   48.0020 H   0  0
   -2.2882  -24.7611   46.4478 H   0  0
   -5.5343  -22.6300   46.4956 H   0  0
   -1.5590  -21.6769   45.0656 H   0  0
   -0.9645  -22.9352   46.4630 H   0  0
   -1.5011  -21.3811   48.0911 H   0  0
   -2.0975  -20.1227   46.6930 H   0  0
   -4.5010  -22.0093   48.9317 H   0  0
   -5.0164  -23.8482   50.5153 H   0  0
   -5.4169  -25.1600   51.5466 H   0  0
   -6.0260  -26.8150   51.3750 H   0  0
   -5.0654  -26.4798   53.6197 H   0  0
   -3.5335  -25.9571   52.9126 H   0  0
  1  2  1  0
  2  3  1  0
  2  4  1  0
  4  5  2  0
  4  9  1  0
  5  6  1  0
  6  7  2  0
  7  8  1  0
  8  9  2  0
  9 10  1  0
 10 11  1  0
 10 20  1  0
 10 36  1  0
 11 12  2  0
 11 13  1  0
 13 14  1  0
 14 15  2  0
 14 18  1  0
 15 16  1  0
 16 17  2  0
 17 18  1  0
 18 19  1  0
 20 21  1  0
 21 22  1  0
 22 23  1  0
 22 35  1  0
 23 24  2  0
 23 34  1  0
 24 25  1  0
 25 26  2  0
 26 27  1  0
 26 33  1  0
 27 28  1  0
 27 31  1  0
 27 32  1  0
 28 29  2  0
 28 30  1  0
 31 32  1  0
 33 34  2  0
 35 36  1  0
  1 37  1  0
  1 38  1  0
  1 39  1  0
  2 40  1  0
  3 41  1  0
  3 42  1  0
  3 43  1  0
  5 44  1  0
  6 45  1  0
  7 46  1  0
  8 47  1  0
 13 48  1  0
 16 49  1  0
 17 50  1  0
 19 51  1  0
 19 52  1  0
 19 53  1  0
 20 54  1  0
 20 55  1  0
 21 56  1  0
 21 57  1  0
 24 58  1  0
 25 59  1  0
 30 60  1  0
 31 61  1  0
 31 62  1  0
 32 63  1  0
 32 64  1  0
 33 65  1  0
 34 66  1  0
 35 67  1  0
 35 68  1  0
 36 69  1  0
 36 70  1  0
M  END
> <Name>
Molecule

> <AbsoluteEnergy>
51.2582

> <Clean Energy>
216.53

> <ConfNumber>
12

> <MOL_NUMBER>
7

> <RelativeEnergy>
7.48519

> <POSE_NUMBER>
20

> <LibDockScore>
126.8148

> <HotSpots>
-0.93,-28.12,54.98,A,74,5
-8.53,-31.32,51.19,A,51,16
-3.73,-20.12,45.19,P,20,29

$$$$
Molecule
  SciTegic05072616053D

 70 74  0  0  0  0            999 V2000
   -6.0466  -23.1263   50.8175 C   0  0  0  1  0  0
   -4.5302  -23.2435   50.5655 C   0  0  0  1  0  0
   -3.8254  -21.8909   50.7898 C   0  0  0  1  0  0
   -4.2226  -23.8200   49.1988 C   0  0  0  1  0  0
   -4.7323  -23.1122   48.0888 C   0  0  0  1  0  0
   -4.4887  -23.5392   46.7798 C   0  0  0  1  0  0
   -3.7216  -24.6848   46.5569 C   0  0  0  1  0  0
   -3.2101  -25.4074   47.6424 C   0  0  0  1  0  0
   -3.4560  -25.0136   48.9813 C   0  0  0  1  0  0
   -2.9061  -25.8546   50.1407 C   0  0  0  1  0  0
   -1.6183  -25.2480   50.7343 C   0  0  0  1  0  0
   -1.6088  -25.0000   51.9160 O   0  0  0  1  0  0
   -0.5095  -24.9834   49.9418 N   0  0  0  1  0  0
    0.8794  -24.6254   50.3564 C   0  0  0  1  0  0
    1.8014  -24.2078   49.4296 N   0  0  0  1  0  0
    2.9448  -23.9348   50.0859 C   0  0  0  1  0  0
    2.7408  -24.1957   51.4299 C   0  0  0  1  0  0
    1.4729  -24.6360   51.6049 N   0  0  0  1  0  0
    0.9240  -25.0459   52.9107 C   0  0  0  1  0  0
   -2.4551  -27.3187   49.7457 C   0  0  0  1  0  0
   -3.5761  -28.3828   49.6046 C   0  0  0  1  0  0
   -4.4546  -28.3048   50.7935 N   0  0  0  1  0  0
   -4.5148  -29.2571   51.8052 C   0  0  0  1  0  0
   -3.3938  -30.0768   52.0658 C   0  0  0  1  0  0
   -3.3353  -30.8438   53.2381 C   0  0  0  1  0  0
   -4.3972  -30.8004   54.1558 C   0  0  0  1  0  0
   -4.2224  -31.3934   55.5320 C   0  0  0  1  0  0
   -3.6838  -30.3517   56.5233 C   0  0  0  1  0  0
   -4.3039  -30.1357   57.5391 O   0  0  0  1  0  0
   -2.5487  -29.6844   56.2630 O   0  0  0  1  0  0
   -5.2015  -32.4553   56.0098 C   0  0  0  1  0  0
   -3.7771  -32.8393   55.6874 C   0  0  0  1  0  0
   -5.5984  -30.1606   53.8053 C   0  0  0  1  0  0
   -5.6593  -29.3954   52.6269 C   0  0  0  1  0  0
   -5.1319  -26.9976   50.9022 C   0  0  0  1  0  0
   -4.0341  -25.9719   51.2337 C   0  0  0  1  0  0
   -6.4598  -22.3827   50.1360 H   0  0
   -6.2080  -22.7972   51.8440 H   0  0
   -6.5309  -24.0892   50.6552 H   0  0
   -4.1323  -23.9484   51.2955 H   0  0
   -4.0003  -21.5693   51.8165 H   0  0
   -4.2521  -21.1549   50.1084 H   0  0
   -2.7551  -21.9892   50.6082 H   0  0
   -5.3278  -22.2146   48.2555 H   0  0
   -4.8957  -22.9804   45.9371 H   0  0
   -3.5209  -25.0166   45.5382 H   0  0
   -2.6074  -26.2955   47.4523 H   0  0
   -0.6732  -25.0446   48.8862 H   0  0
    3.8695  -23.5718   49.6373 H   0  0
    3.4813  -24.0674   52.2194 H   0  0
    0.5711  -26.0505   52.6777 H   0  0
    0.0209  -24.4370   52.9529 H   0  0
    1.5657  -24.9770   53.7891 H   0  0
   -1.9104  -27.2685   48.8029 H   0  0
   -1.7400  -27.6719   50.4887 H   0  0
   -4.1593  -28.1820   48.7059 H   0  0
   -3.1323  -29.3765   49.5435 H   0  0
   -2.5707  -30.1131   51.3522 H   0  0
   -2.4673  -31.4725   53.4366 H   0  0
   -2.7183  -29.2375   55.3281 H   0  0
   -5.8875  -32.7528   55.2167 H   0  0
   -5.3672  -32.3909   57.0852 H   0  0
   -3.1843  -32.9806   56.5911 H   0  0
   -3.7043  -33.3409   54.7224 H   0  0
   -6.4773  -30.2568   54.4428 H   0  0
   -6.5919  -28.9066   52.3450 H   0  0
   -5.8675  -27.0246   51.7061 H   0  0
   -5.6020  -26.7423   49.9525 H   0  0
   -4.4979  -24.9947   51.3677 H   0  0
   -3.5756  -26.2453   52.1840 H   0  0
  1  2  1  0
  2  3  1  0
  2  4  1  0
  4  5  2  0
  4  9  1  0
  5  6  1  0
  6  7  2  0
  7  8  1  0
  8  9  2  0
  9 10  1  0
 10 11  1  0
 10 20  1  0
 10 36  1  0
 11 12  2  0
 11 13  1  0
 13 14  1  0
 14 15  2  0
 14 18  1  0
 15 16  1  0
 16 17  2  0
 17 18  1  0
 18 19  1  0
 20 21  1  0
 21 22  1  0
 22 23  1  0
 22 35  1  0
 23 24  2  0
 23 34  1  0
 24 25  1  0
 25 26  2  0
 26 27  1  0
 26 33  1  0
 27 28  1  0
 27 31  1  0
 27 32  1  0
 28 29  2  0
 28 30  1  0
 31 32  1  0
 33 34  2  0
 35 36  1  0
  1 37  1  0
  1 38  1  0
  1 39  1  0
  2 40  1  0
  3 41  1  0
  3 42  1  0
  3 43  1  0
  5 44  1  0
  6 45  1  0
  7 46  1  0
  8 47  1  0
 13 48  1  0
 16 49  1  0
 17 50  1  0
 19 51  1  0
 19 52  1  0
 19 53  1  0
 20 54  1  0
 20 55  1  0
 21 56  1  0
 21 57  1  0
 24 58  1  0
 25 59  1  0
 30 60  1  0
 31 61  1  0
 31 62  1  0
 32 63  1  0
 32 64  1  0
 33 65  1  0
 34 66  1  0
 35 67  1  0
 35 68  1  0
 36 69  1  0
 36 70  1  0
M  END
> <Name>
Molecule

> <AbsoluteEnergy>
58.2792

> <Clean Energy>
216.53

> <ConfNumber>
49

> <MOL_NUMBER>
7

> <RelativeEnergy>
14.5062

> <POSE_NUMBER>
21

> <LibDockScore>
126.6438

> <HotSpots>
3.07,-24.52,50.38,A,43,17
-4.13,-30.52,57.38,P,71,29
-4.33,-32.92,55.19,A,75,32

$$$$
Molecule
  SciTegic05072616053D

 70 74  0  0  0  0            999 V2000
   -1.7955  -28.0031   54.8003 C   0  0  0  1  0  0
   -2.3687  -27.7407   53.3932 C   0  0  0  1  0  0
   -1.9684  -28.8598   52.4142 C   0  0  0  1  0  0
   -1.9902  -26.3644   52.8798 C   0  0  0  1  0  0
   -0.6659  -25.9587   53.1581 C   0  0  0  1  0  0
   -0.1950  -24.6918   52.8006 C   0  0  0  1  0  0
   -1.0454  -23.7987   52.1519 C   0  0  0  1  0  0
   -2.3588  -24.1808   51.8456 C   0  0  0  1  0  0
   -2.8648  -25.4782   52.1596 C   0  0  0  1  0  0
   -4.2949  -25.8673   51.7331 C   0  0  0  1  0  0
   -4.7172  -25.2650   50.3747 C   0  0  0  1  0  0
   -5.7215  -24.5953   50.2941 O   0  0  0  1  0  0
   -3.9616  -25.4879   49.2359 N   0  0  0  1  0  0
   -4.1515  -24.7636   47.9562 C   0  0  0  1  0  0
   -4.8414  -23.5931   47.8082 N   0  0  0  1  0  0
   -4.8468  -23.3008   46.4944 C   0  0  0  1  0  0
   -4.1212  -24.2793   45.8299 C   0  0  0  1  0  0
   -3.6736  -25.1745   46.7372 N   0  0  0  1  0  0
   -2.8254  -26.3466   46.4406 C   0  0  0  1  0  0
   -5.3256  -25.3537   52.8021 C   0  0  0  1  0  0
   -6.7705  -25.8936   52.6523 C   0  0  0  1  0  0
   -6.8140  -27.3631   52.3855 N   0  0  0  1  0  0
   -7.6330  -28.2401   53.1027 C   0  0  0  1  0  0
   -8.5046  -27.7732   54.1156 C   0  0  0  1  0  0
   -9.3063  -28.6661   54.8476 C   0  0  0  1  0  0
   -9.2642  -30.0462   54.5778 C   0  0  0  1  0  0
  -10.1039  -31.0112   55.3937 C   0  0  0  1  0  0
  -11.4162  -31.4406   54.7338 C   0  0  0  1  0  0
  -11.8746  -32.5306   55.0047 O   0  0  0  1  0  0
  -12.0440  -30.6209   53.8890 O   0  0  0  1  0  0
  -10.1059  -30.8420   56.9053 C   0  0  0  1  0  0
   -9.3882  -32.0174   56.2908 C   0  0  0  1  0  0
   -8.4258  -30.5185   53.5529 C   0  0  0  1  0  0
   -7.6135  -29.6292   52.8330 C   0  0  0  1  0  0
   -5.9258  -27.8139   51.2754 C   0  0  0  1  0  0
   -4.4629  -27.4170   51.5399 C   0  0  0  1  0  0
   -0.7089  -28.0565   54.7326 H   0  0
   -2.1770  -28.9578   55.1625 H   0  0
   -2.0870  -27.2034   55.4812 H   0  0
   -3.4560  -27.7535   53.4692 H   0  0
   -2.3488  -29.8091   52.7914 H   0  0
   -0.8807  -28.9078   52.3614 H   0  0
   -2.3805  -28.6605   51.4250 H   0  0
    0.0062  -26.6514   53.6647 H   0  0
    0.8315  -24.4043   53.0280 H   0  0
   -0.6897  -22.8041   51.8829 H   0  0
   -3.0150  -23.4641   51.3517 H   0  0
   -3.1920  -26.2298   49.2824 H   0  0
   -5.3365  -22.4436   46.0323 H   0  0
   -3.9423  -24.3190   44.7554 H   0  0
   -3.4038  -27.1556   46.8868 H   0  0
   -1.9852  -26.1871   47.1165 H   0  0
   -2.5430  -26.5137   45.4012 H   0  0
   -5.3573  -24.2649   52.7608 H   0  0
   -4.9585  -25.6180   53.7938 H   0  0
   -7.2632  -25.3708   51.8325 H   0  0
   -7.3250  -25.6837   53.5669 H   0  0
   -8.5548  -26.7059   54.3311 H   0  0
   -9.9647  -28.2869   55.6291 H   0  0
  -11.3269  -30.4016   53.1540 H   0  0
  -11.0615  -31.1359   57.3396 H   0  0
   -9.4096  -30.0652   57.2213 H   0  0
   -8.3086  -31.8676   56.2762 H   0  0
   -9.9620  -32.9385   56.3931 H   0  0
   -8.4066  -31.5823   53.3160 H   0  0
   -6.9567  -30.0147   52.0532 H   0  0
   -5.9920  -28.8977   51.1802 H   0  0
   -6.2575  -27.3595   50.3418 H   0  0
   -3.8490  -27.7405   50.6993 H   0  0
   -4.1119  -27.9295   52.4356 H   0  0
  1  2  1  0
  2  3  1  0
  2  4  1  0
  4  5  2  0
  4  9  1  0
  5  6  1  0
  6  7  2  0
  7  8  1  0
  8  9  2  0
  9 10  1  0
 10 11  1  0
 10 20  1  0
 10 36  1  0
 11 12  2  0
 11 13  1  0
 13 14  1  0
 14 15  2  0
 14 18  1  0
 15 16  1  0
 16 17  2  0
 17 18  1  0
 18 19  1  0
 20 21  1  0
 21 22  1  0
 22 23  1  0
 22 35  1  0
 23 24  2  0
 23 34  1  0
 24 25  1  0
 25 26  2  0
 26 27  1  0
 26 33  1  0
 27 28  1  0
 27 31  1  0
 27 32  1  0
 28 29  2  0
 28 30  1  0
 31 32  1  0
 33 34  2  0
 35 36  1  0
  1 37  1  0
  1 38  1  0
  1 39  1  0
  2 40  1  0
  3 41  1  0
  3 42  1  0
  3 43  1  0
  5 44  1  0
  6 45  1  0
  7 46  1  0
  8 47  1  0
 13 48  1  0
 16 49  1  0
 17 50  1  0
 19 51  1  0
 19 52  1  0
 19 53  1  0
 20 54  1  0
 20 55  1  0
 21 56  1  0
 21 57  1  0
 24 58  1  0
 25 59  1  0
 30 60  1  0
 31 61  1  0
 31 62  1  0
 32 63  1  0
 32 64  1  0
 33 65  1  0
 34 66  1  0
 35 67  1  0
 35 68  1  0
 36 69  1  0
 36 70  1  0
M  END
> <Name>
Molecule

> <AbsoluteEnergy>
51.2582

> <Clean Energy>
216.53

> <ConfNumber>
12

> <MOL_NUMBER>
7

> <RelativeEnergy>
7.48519

> <POSE_NUMBER>
22

> <LibDockScore>
126.6239

> <HotSpots>
-0.33,-25.52,53.19,A,64,7
-4.93,-23.52,47.59,A,26,16
-8.73,-28.12,54.38,A,70,24

$$$$
Molecule
  SciTegic05072616053D

 70 74  0  0  0  0            999 V2000
   -1.6734  -23.3963   47.8512 C   0  0  0  1  0  0
   -0.5343  -24.4225   47.9470 C   0  0  0  1  0  0
   -0.9354  -25.8371   47.4815 C   0  0  0  1  0  0
    0.3613  -24.3950   49.1849 C   0  0  0  1  0  0
    1.6882  -23.9700   48.9163 C   0  0  0  1  0  0
    2.6540  -23.8603   49.9182 C   0  0  0  1  0  0
    2.3186  -24.1776   51.2323 C   0  0  0  1  0  0
    1.0234  -24.6107   51.5335 C   0  0  0  1  0  0
    0.0112  -24.7484   50.5432 C   0  0  0  1  0  0
   -1.3757  -25.2569   50.9924 C   0  0  0  1  0  0
   -2.4228  -24.1500   50.7820 C   0  0  0  1  0  0
   -2.0611  -22.9954   50.7274 O   0  0  0  1  0  0
   -3.7694  -24.4434   50.6488 N   0  0  0  1  0  0
   -4.8300  -23.4514   50.3462 C   0  0  0  1  0  0
   -4.6373  -22.1603   49.9402 N   0  0  0  1  0  0
   -5.8575  -21.6090   49.7856 C   0  0  0  1  0  0
   -6.8100  -22.5690   50.0961 C   0  0  0  1  0  0
   -6.1732  -23.7094   50.4379 N   0  0  0  1  0  0
   -6.8135  -24.9769   50.8333 C   0  0  0  1  0  0
   -1.4577  -25.5499   52.5328 C   0  0  0  1  0  0
   -2.7919  -26.1569   53.0093 C   0  0  0  1  0  0
   -3.2127  -27.3229   52.1815 N   0  0  0  1  0  0
   -4.4536  -27.9430   52.3590 C   0  0  0  1  0  0
   -5.5840  -27.1996   52.7759 C   0  0  0  1  0  0
   -6.8374  -27.8111   52.9259 C   0  0  0  1  0  0
   -6.9893  -29.1845   52.6741 C   0  0  0  1  0  0
   -8.3410  -29.8396   52.8267 C   0  0  0  1  0  0
   -8.8176  -29.8872   54.2696 C   0  0  0  1  0  0
   -8.2679  -30.6323   55.0470 O   0  0  0  1  0  0
   -9.8316  -29.1053   54.6390 O   0  0  0  1  0  0
   -8.7218  -30.9891   51.9062 C   0  0  0  1  0  0
   -9.3839  -29.6443   51.7367 C   0  0  0  1  0  0
   -5.8740  -29.9426   52.2801 C   0  0  0  1  0  0
   -4.6196  -29.3293   52.1288 C   0  0  0  1  0  0
   -2.2226  -27.7779   51.1631 C   0  0  0  1  0  0
   -1.6818  -26.6249   50.2856 C   0  0  0  1  0  0
   -2.4998  -23.7623   48.4604 H   0  0
   -2.0001  -23.3615   46.8119 H   0  0
   -1.3506  -22.4114   48.1885 H   0  0
    0.1605  -24.0359   47.2014 H   0  0
   -1.2745  -25.7612   46.4484 H   0  0
   -1.7743  -26.1620   48.0970 H   0  0
   -0.1015  -26.5341   47.5648 H   0  0
    1.9630  -23.7204   47.8915 H   0  0
    3.6632  -23.5288   49.6739 H   0  0
    3.0632  -24.0886   52.0234 H   0  0
    0.7797  -24.8524   52.5681 H   0  0
   -4.0677  -25.4634   50.7736 H   0  0
   -6.0610  -20.5854   49.4709 H   0  0
   -7.8903  -22.4265   50.0687 H   0  0
   -6.3458  -25.1755   51.7976 H   0  0
   -6.3611  -25.6851   50.1391 H   0  0
   -7.9031  -25.0000   50.8505 H   0  0
   -1.2850  -24.6208   53.0759 H   0  0
   -0.6501  -26.2304   52.8026 H   0  0
   -2.6878  -26.4770   54.0460 H   0  0
   -3.5679  -25.3927   52.9658 H   0  0
   -5.4786  -26.1348   52.9837 H   0  0
   -7.6968  -27.2182   53.2391 H   0  0
  -10.6204  -29.3551   53.9926 H   0  0
   -9.3787  -31.7010   52.4059 H   0  0
   -7.9598  -31.1614   51.1461 H   0  0
   -8.9758  -29.0992   50.8856 H   0  0
  -10.3938  -29.6382   52.1467 H   0  0
   -5.9826  -31.0106   52.0912 H   0  0
   -3.7609  -29.9303   51.8295 H   0  0
   -2.6925  -28.5217   50.5196 H   0  0
   -1.3866  -28.2572   51.6725 H   0  0
   -0.7709  -26.9692   49.7959 H   0  0
   -2.3979  -26.4429   49.4842 H   0  0
  1  2  1  0
  2  3  1  0
  2  4  1  0
  4  5  2  0
  4  9  1  0
  5  6  1  0
  6  7  2  0
  7  8  1  0
  8  9  2  0
  9 10  1  0
 10 11  1  0
 10 20  1  0
 10 36  1  0
 11 12  2  0
 11 13  1  0
 13 14  1  0
 14 15  2  0
 14 18  1  0
 15 16  1  0
 16 17  2  0
 17 18  1  0
 18 19  1  0
 20 21  1  0
 21 22  1  0
 22 23  1  0
 22 35  1  0
 23 24  2  0
 23 34  1  0
 24 25  1  0
 25 26  2  0
 26 27  1  0
 26 33  1  0
 27 28  1  0
 27 31  1  0
 27 32  1  0
 28 29  2  0
 28 30  1  0
 31 32  1  0
 33 34  2  0
 35 36  1  0
  1 37  1  0
  1 38  1  0
  1 39  1  0
  2 40  1  0
  3 41  1  0
  3 42  1  0
  3 43  1  0
  5 44  1  0
  6 45  1  0
  7 46  1  0
  8 47  1  0
 13 48  1  0
 16 49  1  0
 17 50  1  0
 19 51  1  0
 19 52  1  0
 19 53  1  0
 20 54  1  0
 20 55  1  0
 21 56  1  0
 21 57  1  0
 24 58  1  0
 25 59  1  0
 30 60  1  0
 31 61  1  0
 31 62  1  0
 32 63  1  0
 32 64  1  0
 33 65  1  0
 34 66  1  0
 35 67  1  0
 35 68  1  0
 36 69  1  0
 36 70  1  0
M  END
> <Name>
Molecule

> <AbsoluteEnergy>
55.8175

> <Clean Energy>
216.53

> <ConfNumber>
35

> <MOL_NUMBER>
7

> <RelativeEnergy>
12.0445

> <POSE_NUMBER>
23

> <LibDockScore>
125.5551

> <HotSpots>
1.27,-23.52,47.59,A,27,5
-6.13,-22.12,49.98,A,41,16
-9.33,-29.92,51.19,A,52,32

$$$$
Molecule
  SciTegic05072616053D

 70 74  0  0  0  0            999 V2000
    1.6630  -25.4823   46.5050 C   0  0  0  1  0  0
    0.7565  -24.4954   47.2669 C   0  0  0  1  0  0
    0.7691  -23.1068   46.5966 C   0  0  0  1  0  0
    1.1152  -24.4187   48.7353 C   0  0  0  1  0  0
    2.4937  -24.3665   49.0426 C   0  0  0  1  0  0
    2.9394  -24.2240   50.3594 C   0  0  0  1  0  0
    2.0100  -24.1197   51.3958 C   0  0  0  1  0  0
    0.6397  -24.1866   51.1148 C   0  0  0  1  0  0
    0.1509  -24.3860   49.7981 C   0  0  0  1  0  0
   -1.3630  -24.5406   49.5514 C   0  0  0  1  0  0
   -1.8431  -23.4427   48.5813 C   0  0  0  1  0  0
   -1.2224  -22.4072   48.4782 O   0  0  0  1  0  0
   -2.9807  -23.6223   47.8166 N   0  0  0  1  0  0
   -3.4734  -22.6670   46.7925 C   0  0  0  1  0  0
   -2.9777  -21.4155   46.5494 N   0  0  0  1  0  0
   -3.7056  -20.8893   45.5455 C   0  0  0  1  0  0
   -4.6594  -21.8235   45.1645 C   0  0  0  1  0  0
   -4.5139  -22.9225   45.9367 N   0  0  0  1  0  0
   -5.3256  -24.1523   45.8639 C   0  0  0  1  0  0
   -2.2443  -24.3757   50.8415 C   0  0  0  1  0  0
   -2.1360  -25.5075   51.8939 C   0  0  0  1  0  0
   -2.2942  -26.8546   51.2805 N   0  0  0  1  0  0
   -3.1594  -27.8212   51.7900 C   0  0  0  1  0  0
   -3.1099  -29.1524   51.3176 C   0  0  0  1  0  0
   -3.9789  -30.1304   51.8278 C   0  0  0  1  0  0
   -4.9120  -29.7971   52.8244 C   0  0  0  1  0  0
   -5.8406  -30.8508   53.3784 C   0  0  0  1  0  0
   -5.1722  -31.7358   54.4161 C   0  0  0  1  0  0
   -5.1973  -31.4027   55.5799 O   0  0  0  1  0  0
   -4.5744  -32.8581   54.0181 O   0  0  0  1  0  0
   -6.8778  -31.4827   52.4631 C   0  0  0  1  0  0
   -7.3181  -30.5313   53.5484 C   0  0  0  1  0  0
   -4.9718  -28.4769   53.3032 C   0  0  0  1  0  0
   -4.1078  -27.4976   52.7881 C   0  0  0  1  0  0
   -1.4499  -27.0926   50.0789 C   0  0  0  1  0  0
   -1.6844  -25.9866   49.0372 C   0  0  0  1  0  0
    2.6805  -25.0916   46.4958 H   0  0
    1.3052  -25.5699   45.4791 H   0  0
    1.6450  -26.4589   46.9888 H   0  0
   -0.2636  -24.8761   47.2164 H   0  0
    0.4162  -23.2074   45.5702 H   0  0
    1.7915  -22.7291   46.5869 H   0  0
    0.1248  -22.4194   47.1447 H   0  0
    3.2238  -24.4388   48.2365 H   0  0
    4.0072  -24.1944   50.5761 H   0  0
    2.3505  -23.9863   52.4226 H   0  0
   -0.0731  -24.0823   51.9328 H   0  0
   -3.5479  -24.5157   47.9745 H   0  0
   -3.5693  -19.9004   45.1077 H   0  0
   -5.4003  -21.6924   44.3758 H   0  0
   -5.6754  -24.2549   46.8911 H   0  0
   -4.5630  -24.9208   45.7375 H   0  0
   -6.1182  -24.1808   45.1161 H   0  0
   -1.9814  -23.4331   51.3216 H   0  0
   -3.2877  -24.2857   50.5394 H   0  0
   -1.1628  -25.4505   52.3815 H   0  0
   -2.9079  -25.3684   52.6508 H   0  0
   -2.3879  -29.4234   50.5473 H   0  0
   -3.9295  -31.1515   51.4496 H   0  0
   -3.8713  -32.5542   53.2999 H   0  0
   -7.0719  -32.5204   52.7346 H   0  0
   -6.8879  -31.0071   51.4824 H   0  0
   -7.5637  -29.5483   53.1465 H   0  0
   -7.7461  -31.0615   54.3992 H   0  0
   -5.6919  -28.2124   54.0775 H   0  0
   -4.1686  -26.4755   53.1619 H   0  0
   -1.7041  -28.0587   49.6429 H   0  0
   -0.3996  -27.0973   50.3703 H   0  0
   -1.0689  -26.1944   48.1619 H   0  0
   -2.7257  -26.0225   48.7171 H   0  0
  1  2  1  0
  2  3  1  0
  2  4  1  0
  4  5  2  0
  4  9  1  0
  5  6  1  0
  6  7  2  0
  7  8  1  0
  8  9  2  0
  9 10  1  0
 10 11  1  0
 10 20  1  0
 10 36  1  0
 11 12  2  0
 11 13  1  0
 13 14  1  0
 14 15  2  0
 14 18  1  0
 15 16  1  0
 16 17  2  0
 17 18  1  0
 18 19  1  0
 20 21  1  0
 21 22  1  0
 22 23  1  0
 22 35  1  0
 23 24  2  0
 23 34  1  0
 24 25  1  0
 25 26  2  0
 26 27  1  0
 26 33  1  0
 27 28  1  0
 27 31  1  0
 27 32  1  0
 28 29  2  0
 28 30  1  0
 31 32  1  0
 33 34  2  0
 35 36  1  0
  1 37  1  0
  1 38  1  0
  1 39  1  0
  2 40  1  0
  3 41  1  0
  3 42  1  0
  3 43  1  0
  5 44  1  0
  6 45  1  0
  7 46  1  0
  8 47  1  0
 13 48  1  0
 16 49  1  0
 17 50  1  0
 19 51  1  0
 19 52  1  0
 19 53  1  0
 20 54  1  0
 20 55  1  0
 21 56  1  0
 21 57  1  0
 24 58  1  0
 25 59  1  0
 30 60  1  0
 31 61  1  0
 31 62  1  0
 32 63  1  0
 32 64  1  0
 33 65  1  0
 34 66  1  0
 35 67  1  0
 35 68  1  0
 36 69  1  0
 36 70  1  0
M  END
> <Name>
Molecule

> <AbsoluteEnergy>
45.5026

> <Clean Energy>
216.53

> <ConfNumber>
4

> <MOL_NUMBER>
7

> <RelativeEnergy>
1.72963

> <POSE_NUMBER>
24

> <LibDockScore>
124.9049

> <HotSpots>
1.67,-24.32,50.98,A,50,7
-3.53,-20.52,45.19,A,12,16
-7.13,-31.92,50.98,A,49,31

$$$$
Molecule
  SciTegic05072616053D

 70 74  0  0  0  0            999 V2000
    1.7573  -25.4429   46.3203 C   0  0  0  1  0  0
    1.3346  -24.7937   47.6537 C   0  0  0  1  0  0
    2.5632  -24.3013   48.4441 C   0  0  0  1  0  0
    0.3146  -23.6927   47.4573 C   0  0  0  1  0  0
    0.6913  -22.6548   46.5741 C   0  0  0  1  0  0
   -0.1885  -21.6206   46.2420 C   0  0  0  1  0  0
   -1.4736  -21.6111   46.7854 C   0  0  0  1  0  0
   -1.8610  -22.6139   47.6838 C   0  0  0  1  0  0
   -0.9757  -23.6502   48.0893 C   0  0  0  1  0  0
   -1.4421  -24.6660   49.1516 C   0  0  0  1  0  0
   -2.6405  -24.1446   49.9941 C   0  0  0  1  0  0
   -2.5312  -23.0661   50.5280 O   0  0  0  1  0  0
   -3.7982  -24.8814   50.1837 N   0  0  0  1  0  0
   -5.1922  -24.4024   50.3659 C   0  0  0  1  0  0
   -6.1744  -25.2758   50.7452 N   0  0  0  1  0  0
   -7.3204  -24.5812   50.8345 C   0  0  0  1  0  0
   -7.0483  -23.2608   50.5122 C   0  0  0  1  0  0
   -5.7343  -23.1448   50.2119 N   0  0  0  1  0  0
   -5.0876  -21.8909   49.7837 C   0  0  0  1  0  0
   -0.3830  -24.8800   50.2940 C   0  0  0  1  0  0
   -0.8011  -25.9415   51.3474 C   0  0  0  1  0  0
   -1.5902  -27.0554   50.7389 N   0  0  0  1  0  0
   -2.5452  -27.7624   51.4712 C   0  0  0  1  0  0
   -2.6667  -27.5740   52.8674 C   0  0  0  1  0  0
   -3.6647  -28.2390   53.5985 C   0  0  0  1  0  0
   -4.5547  -29.1133   52.9512 C   0  0  0  1  0  0
   -5.6518  -29.8074   53.7330 C   0  0  0  1  0  0
   -6.9031  -28.9417   53.9249 C   0  0  0  1  0  0
   -7.5101  -28.5632   52.9478 O   0  0  0  1  0  0
   -7.3200  -28.6153   55.1522 O   0  0  0  1  0  0
   -5.8482  -31.3039   53.5347 C   0  0  0  1  0  0
   -5.2379  -30.7924   54.8198 C   0  0  0  1  0  0
   -4.4309  -29.3259   51.5690 C   0  0  0  1  0  0
   -3.4336  -28.6625   50.8376 C   0  0  0  1  0  0
   -1.3328  -27.2842   49.2899 C   0  0  0  1  0  0
   -1.7202  -26.0465   48.4450 C   0  0  0  1  0  0
    2.4155  -26.2854   46.5326 H   0  0
    2.3007  -24.7069   45.7277 H   0  0
    0.8791  -25.7858   45.7732 H   0  0
    0.8448  -25.5653   48.2477 H   0  0
    3.1017  -23.5723   47.8385 H   0  0
    3.2165  -25.1508   48.6434 H   0  0
    2.2491  -23.8454   49.3830 H   0  0
    1.6919  -22.6613   46.1418 H   0  0
    0.1269  -20.8277   45.5638 H   0  0
   -2.1758  -20.8238   46.5111 H   0  0
   -2.8743  -22.5993   48.0851 H   0  0
   -3.6703  -25.9436   50.2013 H   0  0
   -8.2941  -24.9851   51.1119 H   0  0
   -7.7748  -22.4482   50.5023 H   0  0
   -4.6371  -22.2005   48.8407 H   0  0
   -4.2563  -21.8348   50.4865 H   0  0
   -5.6979  -20.9897   49.7247 H   0  0
   -0.2135  -23.9302   50.8011 H   0  0
    0.5627  -25.1841   49.8453 H   0  0
    0.0936  -26.3532   51.8144 H   0  0
   -1.4012  -25.4619   52.1207 H   0  0
   -1.9776  -26.9047   53.3824 H   0  0
   -3.7494  -28.0763   54.6730 H   0  0
   -6.4893  -28.1500   55.5948 H   0  0
   -5.0927  -31.7219   52.8694 H   0  0
   -6.8907  -31.5915   53.6712 H   0  0
   -5.9558  -30.8078   55.6398 H   0  0
   -4.1576  -30.9366   54.8373 H   0  0
   -5.1122  -30.0090   51.0618 H   0  0
   -3.3424  -28.8433   49.7666 H   0  0
   -1.9131  -28.1433   48.9533 H   0  0
   -0.2745  -27.5006   49.1439 H   0  0
   -1.1690  -26.0785   47.5052 H   0  0
   -2.7805  -26.1083   48.1999 H   0  0
  1  2  1  0
  2  3  1  0
  2  4  1  0
  4  5  2  0
  4  9  1  0
  5  6  1  0
  6  7  2  0
  7  8  1  0
  8  9  2  0
  9 10  1  0
 10 11  1  0
 10 20  1  0
 10 36  1  0
 11 12  2  0
 11 13  1  0
 13 14  1  0
 14 15  2  0
 14 18  1  0
 15 16  1  0
 16 17  2  0
 17 18  1  0
 18 19  1  0
 20 21  1  0
 21 22  1  0
 22 23  1  0
 22 35  1  0
 23 24  2  0
 23 34  1  0
 24 25  1  0
 25 26  2  0
 26 27  1  0
 26 33  1  0
 27 28  1  0
 27 31  1  0
 27 32  1  0
 28 29  2  0
 28 30  1  0
 31 32  1  0
 33 34  2  0
 35 36  1  0
  1 37  1  0
  1 38  1  0
  1 39  1  0
  2 40  1  0
  3 41  1  0
  3 42  1  0
  3 43  1  0
  5 44  1  0
  6 45  1  0
  7 46  1  0
  8 47  1  0
 13 48  1  0
 16 49  1  0
 17 50  1  0
 19 51  1  0
 19 52  1  0
 19 53  1  0
 20 54  1  0
 20 55  1  0
 21 56  1  0
 21 57  1  0
 24 58  1  0
 25 59  1  0
 30 60  1  0
 31 61  1  0
 31 62  1  0
 32 63  1  0
 32 64  1  0
 33 65  1  0
 34 66  1  0
 35 67  1  0
 35 68  1  0
 36 69  1  0
 36 70  1  0
M  END
> <Name>
Molecule

> <AbsoluteEnergy>
59.7716

> <Clean Energy>
216.53

> <ConfNumber>
57

> <MOL_NUMBER>
7

> <RelativeEnergy>
15.9986

> <POSE_NUMBER>
25

> <LibDockScore>
123.2349

> <HotSpots>
1.87,-24.92,46.78,A,22,1
0.27,-22.52,46.78,A,23,5
-6.13,-22.12,49.98,A,41,19

$$$$
Molecule
  SciTegic05072616053D

 70 74  0  0  0  0            999 V2000
   -6.2189  -22.2738   50.2701 C   0  0  0  1  0  0
   -4.9186  -23.1111   50.2365 C   0  0  0  1  0  0
   -3.7579  -22.2317   50.7492 C   0  0  0  1  0  0
   -4.5755  -23.7734   48.9095 C   0  0  0  1  0  0
   -5.2829  -23.3147   47.7686 C   0  0  0  1  0  0
   -5.0185  -23.8030   46.4863 C   0  0  0  1  0  0
   -4.0221  -24.7539   46.3027 C   0  0  0  1  0  0
   -3.3093  -25.2303   47.4077 C   0  0  0  1  0  0
   -3.5826  -24.8155   48.7394 C   0  0  0  1  0  0
   -2.7572  -25.5155   49.8529 C   0  0  0  1  0  0
   -1.3731  -24.8438   49.9900 C   0  0  0  1  0  0
   -1.1029  -23.8698   49.3287 O   0  0  0  1  0  0
   -0.4425  -25.3574   50.8803 N   0  0  0  1  0  0
    0.9875  -24.9981   51.0783 C   0  0  0  1  0  0
    1.6652  -25.4494   52.1795 N   0  0  0  1  0  0
    2.9213  -24.9773   52.1100 C   0  0  0  1  0  0
    3.0323  -24.2282   50.9502 C   0  0  0  1  0  0
    1.8455  -24.2509   50.2977 N   0  0  0  1  0  0
    1.6121  -23.6080   48.9917 C   0  0  0  1  0  0
   -2.5165  -27.0436   49.5187 C   0  0  0  1  0  0
   -3.7969  -27.9084   49.5632 C   0  0  0  1  0  0
   -4.3814  -27.7797   50.9188 N   0  0  0  1  0  0
   -4.4339  -28.8100   51.8381 C   0  0  0  1  0  0
   -3.3576  -29.7166   51.9295 C   0  0  0  1  0  0
   -3.3223  -30.6605   52.9661 C   0  0  0  1  0  0
   -4.3751  -30.7307   53.8964 C   0  0  0  1  0  0
   -4.2878  -31.6853   55.0563 C   0  0  0  1  0  0
   -3.6299  -31.0308   56.2598 C   0  0  0  1  0  0
   -4.3270  -30.5837   57.1439 O   0  0  0  1  0  0
   -2.2942  -30.9672   56.2870 O   0  0  0  1  0  0
   -4.0169  -33.1552   54.7895 C   0  0  0  1  0  0
   -5.3855  -32.7162   55.2563 C   0  0  0  1  0  0
   -5.5013  -29.9034   53.7483 C   0  0  0  1  0  0
   -5.5312  -28.9470   52.7193 C   0  0  0  1  0  0
   -4.7592  -26.3969   51.2755 C   0  0  0  1  0  0
   -3.4518  -25.5671   51.2576 C   0  0  0  1  0  0
   -6.1161  -21.4000   49.6267 H   0  0
   -6.4306  -21.9551   51.2907 H   0  0
   -7.0457  -22.8858   49.9097 H   0  0
   -5.0913  -23.9653   50.8911 H   0  0
   -3.9559  -21.9127   51.7725 H   0  0
   -3.6415  -21.3576   50.1085 H   0  0
   -2.8358  -22.8126   50.7297 H   0  0
   -6.0568  -22.5578   47.8962 H   0  0
   -5.5916  -23.4394   45.6334 H   0  0
   -3.7973  -25.1264   45.3033 H   0  0
   -2.5091  -25.9513   47.2403 H   0  0
   -0.8088  -26.1303   51.5232 H   0  0
    3.7133  -25.1529   52.8380 H   0  0
    3.9288  -23.7055   50.6168 H   0  0
    0.7239  -23.0148   49.2095 H   0  0
    1.2473  -24.4531   48.4079 H   0  0
    2.4316  -23.0544   48.5333 H   0  0
   -2.0757  -27.1214   48.5248 H   0  0
   -1.7946  -27.4503   50.2269 H   0  0
   -4.5090  -27.5488   48.8204 H   0  0
   -3.5441  -28.9509   49.3698 H   0  0
   -2.5533  -29.6837   51.1946 H   0  0
   -2.4760  -31.3422   53.0512 H   0  0
   -2.0178  -30.4616   55.4092 H   0  0
   -3.4438  -33.6102   55.5974 H   0  0
   -4.0073  -33.3729   53.7215 H   0  0
   -6.1037  -32.7008   54.4365 H   0  0
   -5.5396  -32.9365   56.3126 H   0  0
   -6.3474  -30.0031   54.4282 H   0  0
   -6.4054  -28.3070   52.5997 H   0  0
   -5.1959  -26.3761   52.2740 H   0  0
   -5.4579  -26.0010   50.5385 H   0  0
   -3.6768  -24.5500   51.5785 H   0  0
   -2.7554  -25.9927   51.9801 H   0  0
  1  2  1  0
  2  3  1  0
  2  4  1  0
  4  5  2  0
  4  9  1  0
  5  6  1  0
  6  7  2  0
  7  8  1  0
  8  9  2  0
  9 10  1  0
 10 11  1  0
 10 20  1  0
 10 36  1  0
 11 12  2  0
 11 13  1  0
 13 14  1  0
 14 15  2  0
 14 18  1  0
 15 16  1  0
 16 17  2  0
 17 18  1  0
 18 19  1  0
 20 21  1  0
 21 22  1  0
 22 23  1  0
 22 35  1  0
 23 24  2  0
 23 34  1  0
 24 25  1  0
 25 26  2  0
 26 27  1  0
 26 33  1  0
 27 28  1  0
 27 31  1  0
 27 32  1  0
 28 29  2  0
 28 30  1  0
 31 32  1  0
 33 34  2  0
 35 36  1  0
  1 37  1  0
  1 38  1  0
  1 39  1  0
  2 40  1  0
  3 41  1  0
  3 42  1  0
  3 43  1  0
  5 44  1  0
  6 45  1  0
  7 46  1  0
  8 47  1  0
 13 48  1  0
 16 49  1  0
 17 50  1  0
 19 51  1  0
 19 52  1  0
 19 53  1  0
 20 54  1  0
 20 55  1  0
 21 56  1  0
 21 57  1  0
 24 58  1  0
 25 59  1  0
 30 60  1  0
 31 61  1  0
 31 62  1  0
 32 63  1  0
 32 64  1  0
 33 65  1  0
 34 66  1  0
 35 67  1  0
 35 68  1  0
 36 69  1  0
 36 70  1  0
M  END
> <Name>
Molecule

> <AbsoluteEnergy>
62.6996

> <Clean Energy>
216.53

> <ConfNumber>
84

> <MOL_NUMBER>
7

> <RelativeEnergy>
18.9266

> <POSE_NUMBER>
26

> <LibDockScore>
123.173

> <HotSpots>
-6.13,-22.12,49.98,A,41,1
-4.93,-23.52,47.59,A,26,5
-4.33,-32.92,55.19,A,75,31

$$$$
Molecule
  SciTegic05072616053D

 70 74  0  0  0  0            999 V2000
    0.4841  -23.5873   50.6036 C   0  0  0  1  0  0
    1.3155  -24.7638   50.0232 C   0  0  0  1  0  0
    2.8268  -24.5171   50.2828 C   0  0  0  1  0  0
    0.9813  -25.0616   48.5626 C   0  0  0  1  0  0
    1.8856  -24.5455   47.5967 C   0  0  0  1  0  0
    1.7406  -24.8192   46.2348 C   0  0  0  1  0  0
    0.6770  -25.6153   45.7928 C   0  0  0  1  0  0
   -0.2560  -26.1002   46.7170 C   0  0  0  1  0  0
   -0.1692  -25.8193   48.1111 C   0  0  0  1  0  0
   -1.3152  -26.3098   49.0325 C   0  0  0  1  0  0
   -2.5927  -25.5202   48.6947 C   0  0  0  1  0  0
   -2.9751  -25.4924   47.5509 O   0  0  0  1  0  0
   -3.3112  -24.8599   49.6746 N   0  0  0  1  0  0
   -4.4882  -23.9686   49.5197 C   0  0  0  1  0  0
   -5.3315  -23.7520   50.5768 N   0  0  0  1  0  0
   -6.3054  -22.9288   50.1571 C   0  0  0  1  0  0
   -6.0569  -22.6090   48.8328 C   0  0  0  1  0  0
   -4.9314  -23.2472   48.4294 N   0  0  0  1  0  0
   -4.3482  -23.1233   47.0759 C   0  0  0  1  0  0
   -1.6950  -27.7995   48.7655 C   0  0  0  1  0  0
   -2.8244  -28.3523   49.6389 C   0  0  0  1  0  0
   -2.5515  -28.2025   51.0947 N   0  0  0  1  0  0
   -3.3630  -28.8373   52.0394 C   0  0  0  1  0  0
   -4.5438  -29.5267   51.6593 C   0  0  0  1  0  0
   -5.3390  -30.1866   52.6140 C   0  0  0  1  0  0
   -4.9746  -30.1674   53.9757 C   0  0  0  1  0  0
   -5.8161  -30.8829   55.0149 C   0  0  0  1  0  0
   -5.0389  -31.9467   55.7864 C   0  0  0  1  0  0
   -5.0845  -33.0977   55.4073 O   0  0  0  1  0  0
   -4.3257  -31.5852   56.8656 O   0  0  0  1  0  0
   -7.3031  -31.1154   54.7565 C   0  0  0  1  0  0
   -6.8772  -30.0913   55.7823 C   0  0  0  1  0  0
   -3.8162  -29.4720   54.3683 C   0  0  0  1  0  0
   -3.0197  -28.8164   53.4148 C   0  0  0  1  0  0
   -1.3632  -27.3869   51.5110 C   0  0  0  1  0  0
   -0.9188  -26.2510   50.5475 C   0  0  0  1  0  0
    0.7879  -22.6575   50.1227 H   0  0
    0.6608  -23.5139   51.6767 H   0  0
   -0.5760  -23.7624   50.4203 H   0  0
    1.0382  -25.6774   50.5491 H   0  0
    3.0025  -24.4433   51.3560 H   0  0
    3.1296  -23.5869   49.8021 H   0  0
    3.4083  -25.3438   49.8747 H   0  0
    2.7145  -23.9194   47.9269 H   0  0
    2.4541  -24.4138   45.5174 H   0  0
    0.5760  -25.8563   44.7346 H   0  0
   -1.0800  -26.7159   46.3564 H   0  0
   -2.9737  -25.0117   50.6786 H   0  0
   -7.1452  -22.5740   50.7545 H   0  0
   -6.6676  -21.9506   48.2150 H   0  0
   -4.2585  -24.1723   46.7936 H   0  0
   -3.3320  -22.8115   47.3174 H   0  0
   -4.8598  -22.4945   46.3472 H   0  0
   -1.9829  -27.9037   47.7194 H   0  0
   -0.8093  -28.4177   48.9121 H   0  0
   -3.7495  -27.8293   49.3967 H   0  0
   -2.9653  -29.4092   49.4124 H   0  0
   -4.8395  -29.5452   50.6103 H   0  0
   -6.2395  -30.7143   52.2999 H   0  0
   -5.0156  -31.1134   57.5012 H   0  0
   -7.6508  -32.0354   55.2264 H   0  0
   -7.6244  -30.6451   53.8272 H   0  0
   -6.9704  -29.0750   55.3996 H   0  0
   -6.9952  -30.4661   56.7990 H   0  0
   -3.5345  -29.4417   55.4208 H   0  0
   -2.1248  -28.2840   53.7370 H   0  0
   -1.5748  -26.9475   52.4858 H   0  0
   -0.5197  -28.0611   51.6593 H   0  0
    0.1667  -26.1714   50.6058 H   0  0
   -1.2861  -25.3085   50.9535 H   0  0
  1  2  1  0
  2  3  1  0
  2  4  1  0
  4  5  2  0
  4  9  1  0
  5  6  1  0
  6  7  2  0
  7  8  1  0
  8  9  2  0
  9 10  1  0
 10 11  1  0
 10 20  1  0
 10 36  1  0
 11 12  2  0
 11 13  1  0
 13 14  1  0
 14 15  2  0
 14 18  1  0
 15 16  1  0
 16 17  2  0
 17 18  1  0
 18 19  1  0
 20 21  1  0
 21 22  1  0
 22 23  1  0
 22 35  1  0
 23 24  2  0
 23 34  1  0
 24 25  1  0
 25 26  2  0
 26 27  1  0
 26 33  1  0
 27 28  1  0
 27 31  1  0
 27 32  1  0
 28 29  2  0
 28 30  1  0
 31 32  1  0
 33 34  2  0
 35 36  1  0
  1 37  1  0
  1 38  1  0
  1 39  1  0
  2 40  1  0
  3 41  1  0
  3 42  1  0
  3 43  1  0
  5 44  1  0
  6 45  1  0
  7 46  1  0
  8 47  1  0
 13 48  1  0
 16 49  1  0
 17 50  1  0
 19 51  1  0
 19 52  1  0
 19 53  1  0
 20 54  1  0
 20 55  1  0
 21 56  1  0
 21 57  1  0
 24 58  1  0
 25 59  1  0
 30 60  1  0
 31 61  1  0
 31 62  1  0
 32 63  1  0
 32 64  1  0
 33 65  1  0
 34 66  1  0
 35 67  1  0
 35 68  1  0
 36 69  1  0
 36 70  1  0
M  END
> <Name>
Molecule

> <AbsoluteEnergy>
59.6494

> <Clean Energy>
216.53

> <ConfNumber>
55

> <MOL_NUMBER>
7

> <RelativeEnergy>
15.8764

> <POSE_NUMBER>
27

> <LibDockScore>
121.9033

> <HotSpots>
1.27,-23.52,47.59,A,27,5
-4.93,-23.52,47.59,A,26,19
-3.33,-32.52,56.19,P,67,30

$$$$
Molecule
  SciTegic05072616053D

 70 74  0  0  0  0            999 V2000
   -4.0283  -24.9196   46.8460 C   0  0  0  1  0  0
   -3.3410  -24.1358   47.9801 C   0  0  0  1  0  0
   -2.8711  -22.7545   47.4758 C   0  0  0  1  0  0
   -4.2323  -24.0357   49.2019 C   0  0  0  1  0  0
   -5.4625  -23.3602   49.0229 C   0  0  0  1  0  0
   -6.4027  -23.2743   50.0552 C   0  0  0  1  0  0
   -6.1288  -23.8670   51.2885 C   0  0  0  1  0  0
   -4.9019  -24.5079   51.4989 C   0  0  0  1  0  0
   -3.9067  -24.5895   50.4881 C   0  0  0  1  0  0
   -2.5594  -25.2827   50.7855 C   0  0  0  1  0  0
   -1.3477  -24.3607   50.5628 C   0  0  0  1  0  0
   -1.4798  -23.2420   50.1222 O   0  0  0  1  0  0
   -0.0896  -24.8215   50.8974 N   0  0  0  1  0  0
    1.1909  -24.2508   50.4246 C   0  0  0  1  0  0
    1.3607  -23.4256   49.3496 N   0  0  0  1  0  0
    2.6749  -23.1308   49.2854 C   0  0  0  1  0  0
    3.3174  -23.7826   50.3294 C   0  0  0  1  0  0
    2.3969  -24.4779   51.0311 N   0  0  0  1  0  0
    2.6466  -25.3076   52.2246 C   0  0  0  1  0  0
   -2.3577  -25.7298   52.2994 C   0  0  0  1  0  0
   -2.5011  -27.2434   52.5220 C   0  0  0  1  0  0
   -3.7009  -27.7126   51.7951 N   0  0  0  1  0  0
   -4.8664  -28.0856   52.4490 C   0  0  0  1  0  0
   -4.7906  -28.6495   53.7414 C   0  0  0  1  0  0
   -5.9494  -28.9756   54.4510 C   0  0  0  1  0  0
   -7.2119  -28.7463   53.8800 C   0  0  0  1  0  0
   -8.4597  -29.0572   54.6737 C   0  0  0  1  0  0
   -8.5753  -30.5291   55.1010 C   0  0  0  1  0  0
   -7.5722  -31.1328   55.4109 O   0  0  0  1  0  0
   -9.7631  -31.1415   55.1389 O   0  0  0  1  0  0
   -8.9506  -27.9956   55.6468 C   0  0  0  1  0  0
   -9.6966  -28.2269   54.3550 C   0  0  0  1  0  0
   -7.3033  -28.2208   52.5768 C   0  0  0  1  0  0
   -6.1376  -27.8918   51.8647 C   0  0  0  1  0  0
   -3.5899  -27.6390   50.3104 C   0  0  0  1  0  0
   -2.5339  -26.5801   49.8923 C   0  0  0  1  0  0
   -3.3220  -25.0525   46.0265 H   0  0
   -4.8873  -24.3508   46.4901 H   0  0
   -4.3563  -25.8927   47.2115 H   0  0
   -2.4532  -24.6856   48.2925 H   0  0
   -3.7345  -22.1939   47.1175 H   0  0
   -2.1692  -22.8956   46.6539 H   0  0
   -2.3864  -22.2079   48.2847 H   0  0
   -5.6822  -22.8972   48.0609 H   0  0
   -7.3437  -22.7475   49.8971 H   0  0
   -6.8694  -23.8310   52.0874 H   0  0
   -4.7035  -24.9595   52.4709 H   0  0
   -0.0363  -25.6637   51.5552 H   0  0
    3.1507  -22.4911   48.5421 H   0  0
    4.3848  -23.7402   50.5460 H   0  0
    2.2075  -26.2624   51.9356 H   0  0
    1.9577  -24.8767   52.9511 H   0  0
    3.6772  -25.3769   52.5726 H   0  0
   -1.3669  -25.4187   52.6305 H   0  0
   -3.0884  -25.2130   52.9216 H   0  0
   -1.6182  -27.7547   52.1384 H   0  0
   -2.6156  -27.4482   53.5864 H   0  0
   -3.8150  -28.8329   54.1916 H   0  0
   -5.8734  -29.4083   55.4485 H   0  0
  -10.1482  -31.0165   54.1701 H   0  0
   -8.3363  -27.0963   55.6012 H   0  0
   -9.4686  -28.4411   56.4961 H   0  0
  -10.6122  -28.7961   54.5154 H   0  0
   -9.4786  -27.4522   53.6199 H   0  0
   -8.2809  -28.0689   52.1193 H   0  0
   -6.2147  -27.4850   50.8564 H   0  0
   -3.2953  -28.6140   49.9223 H   0  0
   -4.5578  -27.3680   49.8887 H   0  0
   -2.7097  -26.2981   48.8542 H   0  0
   -1.5427  -27.0300   49.9489 H   0  0
  1  2  1  0
  2  3  1  0
  2  4  1  0
  4  5  2  0
  4  9  1  0
  5  6  1  0
  6  7  2  0
  7  8  1  0
  8  9  2  0
  9 10  1  0
 10 11  1  0
 10 20  1  0
 10 36  1  0
 11 12  2  0
 11 13  1  0
 13 14  1  0
 14 15  2  0
 14 18  1  0
 15 16  1  0
 16 17  2  0
 17 18  1  0
 18 19  1  0
 20 21  1  0
 21 22  1  0
 22 23  1  0
 22 35  1  0
 23 24  2  0
 23 34  1  0
 24 25  1  0
 25 26  2  0
 26 27  1  0
 26 33  1  0
 27 28  1  0
 27 31  1  0
 27 32  1  0
 28 29  2  0
 28 30  1  0
 31 32  1  0
 33 34  2  0
 35 36  1  0
  1 37  1  0
  1 38  1  0
  1 39  1  0
  2 40  1  0
  3 41  1  0
  3 42  1  0
  3 43  1  0
  5 44  1  0
  6 45  1  0
  7 46  1  0
  8 47  1  0
 13 48  1  0
 16 49  1  0
 17 50  1  0
 19 51  1  0
 19 52  1  0
 19 53  1  0
 20 54  1  0
 20 55  1  0
 21 56  1  0
 21 57  1  0
 24 58  1  0
 25 59  1  0
 30 60  1  0
 31 61  1  0
 31 62  1  0
 32 63  1  0
 32 64  1  0
 33 65  1  0
 34 66  1  0
 35 67  1  0
 35 68  1  0
 36 69  1  0
 36 70  1  0
M  END
> <Name>
Molecule

> <AbsoluteEnergy>
54.7304

> <Clean Energy>
216.53

> <ConfNumber>
29

> <MOL_NUMBER>
7

> <RelativeEnergy>
10.9574

> <POSE_NUMBER>
28

> <LibDockScore>
121.5173

> <HotSpots>
-5.33,-24.12,49.78,A,36,5
2.67,-22.92,49.98,A,39,16
-6.53,-30.72,51.78,A,56,33

$$$$
Molecule
  SciTegic05072616053D

 70 74  0  0  0  0            999 V2000
   -4.3417  -31.0786   55.7659 C   0  0  0  1  0  0
   -4.8812  -30.8538   54.3388 C   0  0  0  1  0  0
   -5.1565  -32.1963   53.6328 C   0  0  0  1  0  0
   -6.0952  -29.9499   54.3206 C   0  0  0  1  0  0
   -7.1773  -30.3559   55.1350 C   0  0  0  1  0  0
   -8.3254  -29.5705   55.2722 C   0  0  0  1  0  0
   -8.4082  -28.3515   54.5985 C   0  0  0  1  0  0
   -7.3602  -27.9402   53.7646 C   0  0  0  1  0  0
   -6.2016  -28.7377   53.5555 C   0  0  0  1  0  0
   -5.1313  -28.2623   52.5523 C   0  0  0  1  0  0
   -5.5130  -26.9243   51.8579 C   0  0  0  1  0  0
   -6.5756  -26.8659   51.2855 O   0  0  0  1  0  0
   -4.6708  -25.8246   51.8393 N   0  0  0  1  0  0
   -4.8548  -24.5172   51.1589 C   0  0  0  1  0  0
   -3.8071  -23.6439   51.0546 N   0  0  0  1  0  0
   -4.2500  -22.5578   50.4004 C   0  0  0  1  0  0
   -5.5859  -22.7587   50.0900 C   0  0  0  1  0  0
   -5.9695  -23.9659   50.5648 N   0  0  0  1  0  0
   -7.3372  -24.5053   50.4553 C   0  0  0  1  0  0
   -5.0212  -29.1972   51.2928 C   0  0  0  1  0  0
   -3.9107  -28.7754   50.2927 C   0  0  0  1  0  0
   -2.7246  -28.1875   50.9863 N   0  0  0  1  0  0
   -1.9121  -27.2350   50.3691 C   0  0  0  1  0  0
   -1.7693  -27.2129   48.9624 C   0  0  0  1  0  0
   -1.0000  -26.2204   48.3334 C   0  0  0  1  0  0
   -0.3496  -25.2362   49.0976 C   0  0  0  1  0  0
    0.4550  -24.1462   48.4187 C   0  0  0  1  0  0
   -0.4086  -23.0005   47.8766 C   0  0  0  1  0  0
   -1.5156  -22.8317   48.3374 O   0  0  0  1  0  0
    0.0565  -22.1976   46.9145 O   0  0  0  1  0  0
    1.8241  -23.7960   48.9845 C   0  0  0  1  0  0
    1.7243  -24.5533   47.6799 C   0  0  0  1  0  0
   -0.4655  -25.2600   50.4965 C   0  0  0  1  0  0
   -1.2334  -26.2517   51.1262 C   0  0  0  1  0  0
   -2.5388  -28.6359   52.3944 C   0  0  0  1  0  0
   -3.7360  -28.2191   53.2825 C   0  0  0  1  0  0
   -3.4184  -31.6548   55.7059 H   0  0
   -5.0787  -31.6452   56.3351 H   0  0
   -4.1520  -30.1216   56.2520 H   0  0
   -4.1033  -30.3365   53.7772 H   0  0
   -5.8885  -32.7560   54.2150 H   0  0
   -4.2282  -32.7656   53.5859 H   0  0
   -5.5369  -32.0216   52.6264 H   0  0
   -7.1147  -31.3042   55.6687 H   0  0
   -9.1497  -29.9078   55.9007 H   0  0
   -9.2878  -27.7195   54.7209 H   0  0
   -7.4354  -26.9772   53.2595 H   0  0
   -3.7610  -25.9320   52.3921 H   0  0
   -3.6619  -21.6732   50.1563 H   0  0
   -6.2236  -22.0580   49.5510 H   0  0
   -7.5614  -24.7181   51.5006 H   0  0
   -7.1416  -25.4792   50.0066 H   0  0
   -8.0880  -23.9068   49.9394 H   0  0
   -5.9788  -29.2027   50.7721 H   0  0
   -4.8248  -30.2161   51.6264 H   0  0
   -3.5928  -29.6484   49.7227 H   0  0
   -4.3156  -28.0408   49.5966 H   0  0
   -2.2622  -27.9752   48.3591 H   0  0
   -0.9069  -26.2133   47.2474 H   0  0
    0.3195  -22.8498   46.1348 H   0  0
    2.0955  -24.4529   49.8108 H   0  0
    2.0667  -22.7458   48.8223 H   0  0
    1.9135  -23.9058   46.8237 H   0  0
    1.9407  -25.6133   47.8126 H   0  0
    0.0431  -24.5051   51.0961 H   0  0
   -1.3078  -26.2643   52.2136 H   0  0
   -1.6257  -28.1948   52.7943 H   0  0
   -2.4386  -29.7211   52.4145 H   0  0
   -3.7725  -28.8767   54.1510 H   0  0
   -3.5632  -27.2077   53.6503 H   0  0
  1  2  1  0
  2  3  1  0
  2  4  1  0
  4  5  2  0
  4  9  1  0
  5  6  1  0
  6  7  2  0
  7  8  1  0
  8  9  2  0
  9 10  1  0
 10 11  1  0
 10 20  1  0
 10 36  1  0
 11 12  2  0
 11 13  1  0
 13 14  1  0
 14 15  2  0
 14 18  1  0
 15 16  1  0
 16 17  2  0
 17 18  1  0
 18 19  1  0
 20 21  1  0
 21 22  1  0
 22 23  1  0
 22 35  1  0
 23 24  2  0
 23 34  1  0
 24 25  1  0
 25 26  2  0
 26 27  1  0
 26 33  1  0
 27 28  1  0
 27 31  1  0
 27 32  1  0
 28 29  2  0
 28 30  1  0
 31 32  1  0
 33 34  2  0
 35 36  1  0
  1 37  1  0
  1 38  1  0
  1 39  1  0
  2 40  1  0
  3 41  1  0
  3 42  1  0
  3 43  1  0
  5 44  1  0
  6 45  1  0
  7 46  1  0
  8 47  1  0
 13 48  1  0
 16 49  1  0
 17 50  1  0
 19 51  1  0
 19 52  1  0
 19 53  1  0
 20 54  1  0
 20 55  1  0
 21 56  1  0
 21 57  1  0
 24 58  1  0
 25 59  1  0
 30 60  1  0
 31 61  1  0
 31 62  1  0
 32 63  1  0
 32 64  1  0
 33 65  1  0
 34 66  1  0
 35 67  1  0
 35 68  1  0
 36 69  1  0
 36 70  1  0
M  END
> <Name>
Molecule

> <AbsoluteEnergy>
59.7716

> <Clean Energy>
216.53

> <ConfNumber>
57

> <MOL_NUMBER>
7

> <RelativeEnergy>
15.9986

> <POSE_NUMBER>
29

> <LibDockScore>
121.5071

> <HotSpots>
-8.73,-28.12,54.38,A,70,7
-4.73,-22.32,50.38,A,46,16
1.27,-23.52,47.59,A,27,32

$$$$
Molecule
  SciTegic05072616053D

 70 74  0  0  0  0            999 V2000
   -0.5972  -23.1334   50.2125 C   0  0  0  1  0  0
    0.5550  -24.1094   49.9019 C   0  0  0  1  0  0
    1.9308  -23.4803   50.2068 C   0  0  0  1  0  0
    0.4673  -24.6463   48.4918 C   0  0  0  1  0  0
    1.3510  -24.0834   47.5432 C   0  0  0  1  0  0
    1.3656  -24.5170   46.2141 C   0  0  0  1  0  0
    0.4880  -25.5239   45.8062 C   0  0  0  1  0  0
   -0.4034  -26.0905   46.7257 C   0  0  0  1  0  0
   -0.4492  -25.6700   48.0815 C   0  0  0  1  0  0
   -1.4578  -26.3097   49.0479 C   0  0  0  1  0  0
   -2.8325  -25.6438   48.8664 C   0  0  0  1  0  0
   -3.2803  -25.5843   47.7464 O   0  0  0  1  0  0
   -3.5461  -25.1293   49.9312 N   0  0  0  1  0  0
   -4.7238  -24.2170   49.9288 C   0  0  0  1  0  0
   -5.4879  -24.0854   51.0568 N   0  0  0  1  0  0
   -6.4799  -23.2206   50.7814 C   0  0  0  1  0  0
   -6.3295  -22.8022   49.4693 C   0  0  0  1  0  0
   -5.2431  -23.4066   48.9366 N   0  0  0  1  0  0
   -4.7784  -23.1714   47.5565 C   0  0  0  1  0  0
   -1.7113  -27.8153   48.7611 C   0  0  0  1  0  0
   -2.7447  -28.4687   49.6897 C   0  0  0  1  0  0
   -2.5462  -28.1909   51.1475 N   0  0  0  1  0  0
   -3.2823  -28.9024   52.1083 C   0  0  0  1  0  0
   -2.9063  -28.8887   53.4748 C   0  0  0  1  0  0
   -3.6419  -29.5962   54.4387 C   0  0  0  1  0  0
   -4.7710  -30.3433   54.0643 C   0  0  0  1  0  0
   -5.5588  -31.1076   55.1036 C   0  0  0  1  0  0
   -6.8579  -30.4166   55.5032 C   0  0  0  1  0  0
   -7.8798  -31.0651   55.5660 O   0  0  0  1  0  0
   -6.8401  -29.1118   55.7771 O   0  0  0  1  0  0
   -4.8106  -31.8730   56.1861 C   0  0  0  1  0  0
   -5.5053  -32.6279   55.0795 C   0  0  0  1  0  0
   -5.1611  -30.3696   52.7157 C   0  0  0  1  0  0
   -4.4293  -29.6561   51.7511 C   0  0  0  1  0  0
   -1.5737  -27.1297   51.5798 C   0  0  0  1  0  0
   -0.8255  -26.3462   50.4715 C   0  0  0  1  0  0
   -0.4642  -22.2361   49.6081 H   0  0
   -0.5462  -22.8607   51.2666 H   0  0
   -1.5589  -23.5961   49.9907 H   0  0
    0.4475  -24.9651   50.5684 H   0  0
    1.9603  -23.2046   51.2609 H   0  0
    2.0423  -22.5800   49.6025 H   0  0
    2.7308  -24.1853   49.9808 H   0  0
    2.0357  -23.2945   47.8544 H   0  0
    2.0583  -24.0715   45.5000 H   0  0
    0.4969  -25.8687   44.7722 H   0  0
   -1.0810  -26.8762   46.3915 H   0  0
   -3.2029  -25.4299   50.8991 H   0  0
   -7.2642  -22.9045   51.4692 H   0  0
   -6.9813  -22.0995   48.9502 H   0  0
   -4.7239  -24.1947   47.1850 H   0  0
   -3.7418  -22.8878   47.7384 H   0  0
   -5.3404  -22.4822   46.9263 H   0  0
   -2.0485  -27.9245   47.7304 H   0  0
   -0.7686  -28.3548   48.8524 H   0  0
   -3.7388  -28.1258   49.4027 H   0  0
   -2.7220  -29.5475   49.5355 H   0  0
   -2.0300  -28.3184   53.7829 H   0  0
   -3.3350  -29.5656   55.4842 H   0  0
   -6.4421  -28.6580   54.9179 H   0  0
   -5.3786  -31.9086   57.1158 H   0  0
   -3.7325  -31.8327   56.0308 H   0  0
   -4.7976  -32.9915   54.3345 H   0  0
   -6.4440  -33.0660   55.4187 H   0  0
   -6.0359  -30.9463   52.4154 H   0  0
   -4.7491  -29.6825   50.7094 H   0  0
   -0.8317  -27.5926   52.2304 H   0  0
   -2.1084  -26.4127   52.2029 H   0  0
   -0.6940  -25.3194   50.8127 H   0  0
    0.1805  -26.7570   50.3863 H   0  0
  1  2  1  0
  2  3  1  0
  2  4  1  0
  4  5  2  0
  4  9  1  0
  5  6  1  0
  6  7  2  0
  7  8  1  0
  8  9  2  0
  9 10  1  0
 10 11  1  0
 10 20  1  0
 10 36  1  0
 11 12  2  0
 11 13  1  0
 13 14  1  0
 14 15  2  0
 14 18  1  0
 15 16  1  0
 16 17  2  0
 17 18  1  0
 18 19  1  0
 20 21  1  0
 21 22  1  0
 22 23  1  0
 22 35  1  0
 23 24  2  0
 23 34  1  0
 24 25  1  0
 25 26  2  0
 26 27  1  0
 26 33  1  0
 27 28  1  0
 27 31  1  0
 27 32  1  0
 28 29  2  0
 28 30  1  0
 31 32  1  0
 33 34  2  0
 35 36  1  0
  1 37  1  0
  1 38  1  0
  1 39  1  0
  2 40  1  0
  3 41  1  0
  3 42  1  0
  3 43  1  0
  5 44  1  0
  6 45  1  0
  7 46  1  0
  8 47  1  0
 13 48  1  0
 16 49  1  0
 17 50  1  0
 19 51  1  0
 19 52  1  0
 19 53  1  0
 20 54  1  0
 20 55  1  0
 21 56  1  0
 21 57  1  0
 24 58  1  0
 25 59  1  0
 30 60  1  0
 31 61  1  0
 31 62  1  0
 32 63  1  0
 32 64  1  0
 33 65  1  0
 34 66  1  0
 35 67  1  0
 35 68  1  0
 36 69  1  0
 36 70  1  0
M  END
> <Name>
Molecule

> <AbsoluteEnergy>
51.877

> <Clean Energy>
216.53

> <ConfNumber>
16

> <MOL_NUMBER>
7

> <RelativeEnergy>
8.104

> <POSE_NUMBER>
30

> <LibDockScore>
121.1719

> <HotSpots>
1.87,-24.92,46.78,A,22,7
-6.53,-23.32,50.38,A,45,16
-4.13,-31.12,56.59,A,79,31

$$$$
Molecule
  SciTegic05072616053D

 70 74  0  0  0  0            999 V2000
    2.4296  -25.6527   52.9745 C   0  0  0  1  0  0
    1.2165  -24.7627   52.6429 C   0  0  0  1  0  0
    1.0939  -23.6196   53.6750 C   0  0  0  1  0  0
    1.2808  -24.2566   51.2140 C   0  0  0  1  0  0
    2.5390  -23.7400   50.8245 C   0  0  0  1  0  0
    2.7468  -23.1783   49.5651 C   0  0  0  1  0  0
    1.6882  -23.0979   48.6640 C   0  0  0  1  0  0
    0.4346  -23.6147   49.0127 C   0  0  0  1  0  0
    0.1999  -24.2616   50.2600 C   0  0  0  1  0  0
   -1.1749  -24.9182   50.4932 C   0  0  0  1  0  0
   -2.2320  -24.5552   49.4220 C   0  0  0  1  0  0
   -3.0567  -23.7022   49.6625 O   0  0  0  1  0  0
   -2.2871  -25.2067   48.1989 N   0  0  0  1  0  0
   -3.3048  -24.9143   47.1559 C   0  0  0  1  0  0
   -4.1167  -23.8162   47.1111 N   0  0  0  1  0  0
   -4.8840  -23.9307   46.0122 C   0  0  0  1  0  0
   -4.5435  -25.1133   45.3685 C   0  0  0  1  0  0
   -3.5724  -25.7244   46.0830 N   0  0  0  1  0  0
   -2.9306  -27.0126   45.7627 C   0  0  0  1  0  0
   -1.1107  -26.4712   50.4920 C   0  0  0  1  0  0
   -2.4836  -27.1410   50.6661 C   0  0  0  1  0  0
   -3.4143  -26.4607   51.6249 N   0  0  0  1  0  0
   -4.6222  -27.0775   51.9021 C   0  0  0  1  0  0
   -5.7687  -26.3003   52.1676 C   0  0  0  1  0  0
   -7.0047  -26.9190   52.4094 C   0  0  0  1  0  0
   -7.1075  -28.3244   52.4268 C   0  0  0  1  0  0
   -8.4281  -29.0069   52.7174 C   0  0  0  1  0  0
   -8.9458  -28.7708   54.1343 C   0  0  0  1  0  0
   -9.1048  -29.7048   54.8889 O   0  0  0  1  0  0
   -9.2223  -27.5272   54.5157 O   0  0  0  1  0  0
   -8.7082  -30.3573   52.0767 C   0  0  0  1  0  0
   -9.4438  -29.1277   51.5949 C   0  0  0  1  0  0
   -5.9650  -29.1025   52.1606 C   0  0  0  1  0  0
   -4.7314  -28.4851   51.8980 C   0  0  0  1  0  0
   -3.1238  -25.1212   52.2344 C   0  0  0  1  0  0
   -1.7593  -24.4900   51.8710 C   0  0  0  1  0  0
    2.3020  -26.0750   53.9712 H   0  0
    3.3350  -25.0461   52.9543 H   0  0
    2.5100  -26.4566   52.2428 H   0  0
    0.3090  -25.3623   52.7137 H   0  0
    2.0027  -23.0182   53.6529 H   0  0
    0.9698  -24.0472   54.6699 H   0  0
    0.2341  -22.9943   53.4345 H   0  0
    3.3697  -23.7822   51.5289 H   0  0
    3.7323  -22.8043   49.2876 H   0  0
    1.8353  -22.6335   47.6889 H   0  0
   -0.3896  -23.5188   48.3059 H   0  0
   -1.5566  -25.9615   47.9949 H   0  0
   -5.6415  -23.2189   45.6839 H   0  0
   -4.9846  -25.4855   44.4439 H   0  0
   -3.0808  -27.5777   46.6826 H   0  0
   -1.8739  -26.7454   45.7531 H   0  0
   -3.2702  -27.5252   44.8627 H   0  0
   -0.6722  -26.8059   49.5519 H   0  0
   -0.4543  -26.7993   51.2980 H   0  0
   -2.9700  -27.1963   49.6922 H   0  0
   -2.3315  -28.1670   51.0011 H   0  0
   -5.6943  -25.2130   52.1851 H   0  0
   -7.8907  -26.3089   52.5848 H   0  0
   -9.9199  -27.1731   53.8154 H   0  0
   -9.3384  -30.9791   52.7126 H   0  0
   -7.9136  -30.6457   51.3885 H   0  0
   -9.0415  -28.7637   50.6495 H   0  0
  -10.4651  -29.0961   51.9743 H   0  0
   -6.0383  -30.1900   52.1583 H   0  0
   -3.8531  -29.0961   51.6898 H   0  0
   -3.1832  -25.2150   53.3187 H   0  0
   -3.9137  -24.4302   51.9399 H   0  0
   -1.8645  -23.4052   51.8837 H   0  0
   -1.0401  -24.7461   52.6490 H   0  0
  1  2  1  0
  2  3  1  0
  2  4  1  0
  4  5  2  0
  4  9  1  0
  5  6  1  0
  6  7  2  0
  7  8  1  0
  8  9  2  0
  9 10  1  0
 10 11  1  0
 10 20  1  0
 10 36  1  0
 11 12  2  0
 11 13  1  0
 13 14  1  0
 14 15  2  0
 14 18  1  0
 15 16  1  0
 16 17  2  0
 17 18  1  0
 18 19  1  0
 20 21  1  0
 21 22  1  0
 22 23  1  0
 22 35  1  0
 23 24  2  0
 23 34  1  0
 24 25  1  0
 25 26  2  0
 26 27  1  0
 26 33  1  0
 27 28  1  0
 27 31  1  0
 27 32  1  0
 28 29  2  0
 28 30  1  0
 31 32  1  0
 33 34  2  0
 35 36  1  0
  1 37  1  0
  1 38  1  0
  1 39  1  0
  2 40  1  0
  3 41  1  0
  3 42  1  0
  3 43  1  0
  5 44  1  0
  6 45  1  0
  7 46  1  0
  8 47  1  0
 13 48  1  0
 16 49  1  0
 17 50  1  0
 19 51  1  0
 19 52  1  0
 19 53  1  0
 20 54  1  0
 20 55  1  0
 21 56  1  0
 21 57  1  0
 24 58  1  0
 25 59  1  0
 30 60  1  0
 31 61  1  0
 31 62  1  0
 32 63  1  0
 32 64  1  0
 33 65  1  0
 34 66  1  0
 35 67  1  0
 35 68  1  0
 36 69  1  0
 36 70  1  0
M  END
> <Name>
Molecule

> <AbsoluteEnergy>
55.9363

> <Clean Energy>
216.53

> <ConfNumber>
36

> <MOL_NUMBER>
7

> <RelativeEnergy>
12.1633

> <POSE_NUMBER>
31

> <LibDockScore>
120.5155

> <HotSpots>
2.67,-22.92,49.98,A,39,6
-4.53,-24.52,46.19,A,17,16
-9.33,-29.92,51.19,A,52,32

$$$$
Molecule
  SciTegic05072616053D

 70 74  0  0  0  0            999 V2000
   -4.4424  -31.0508   55.7198 C   0  0  0  1  0  0
   -4.9768  -30.7930   54.2964 C   0  0  0  1  0  0
   -5.3139  -32.1174   53.5830 C   0  0  0  1  0  0
   -6.1497  -29.8362   54.2888 C   0  0  0  1  0  0
   -7.2439  -30.1972   55.1082 C   0  0  0  1  0  0
   -8.3553  -29.3622   55.2552 C   0  0  0  1  0  0
   -8.3879  -28.1381   54.5865 C   0  0  0  1  0  0
   -7.3276  -27.7702   53.7479 C   0  0  0  1  0  0
   -6.2067  -28.6174   53.5289 C   0  0  0  1  0  0
   -5.1223  -28.1859   52.5211 C   0  0  0  1  0  0
   -5.4802  -26.8637   51.7851 C   0  0  0  1  0  0
   -6.5765  -26.7722   51.2854 O   0  0  0  1  0  0
   -4.5834  -25.8165   51.6502 N   0  0  0  1  0  0
   -4.7691  -24.5076   50.9733 C   0  0  0  1  0  0
   -3.6827  -23.7434   50.6462 N   0  0  0  1  0  0
   -4.1373  -22.6287   50.0508 C   0  0  0  1  0  0
   -5.5206  -22.7015   50.0024 C   0  0  0  1  0  0
   -5.9192  -23.8579   50.5802 N   0  0  0  1  0  0
   -7.3275  -24.2614   50.7463 C   0  0  0  1  0  0
   -5.0151  -29.1585   51.2901 C   0  0  0  1  0  0
   -3.8913  -28.7810   50.2873 C   0  0  0  1  0  0
   -2.7027  -28.1891   50.9732 N   0  0  0  1  0  0
   -1.8724  -27.2661   50.3353 C   0  0  0  1  0  0
   -1.7312  -27.2764   48.9284 C   0  0  0  1  0  0
   -0.9434  -26.3127   48.2778 C   0  0  0  1  0  0
   -0.2727  -25.3256   49.0205 C   0  0  0  1  0  0
    0.5523  -24.2662   48.3180 C   0  0  0  1  0  0
   -0.2859  -23.0999   47.7802 C   0  0  0  1  0  0
   -1.4058  -22.9350   48.2103 O   0  0  0  1  0  0
    0.2149  -22.2750   46.8553 O   0  0  0  1  0  0
    1.9408  -23.9524   48.8572 C   0  0  0  1  0  0
    1.7959  -24.7176   47.5615 C   0  0  0  1  0  0
   -0.3871  -25.3176   50.4197 C   0  0  0  1  0  0
   -1.1735  -26.2806   51.0709 C   0  0  0  1  0  0
   -2.5340  -28.5988   52.3952 C   0  0  0  1  0  0
   -3.7322  -28.1402   53.2611 C   0  0  0  1  0  0
   -3.5457  -31.6668   55.6524 H   0  0
   -5.2016  -31.5879   56.2884 H   0  0
   -4.2087  -30.1063   56.2112 H   0  0
   -4.1789  -30.3069   53.7350 H   0  0
   -6.0677  -32.6480   54.1646 H   0  0
   -4.4119  -32.7269   53.5287 H   0  0
   -5.6900  -31.9195   52.5793 H   0  0
   -7.2203  -31.1495   55.6380 H   0  0
   -9.1900  -29.6651   55.8874 H   0  0
   -9.2379  -27.4683   54.7165 H   0  0
   -7.3630  -26.8028   53.2469 H   0  0
   -3.6231  -25.9723   52.0957 H   0  0
   -3.5255  -21.8100   49.6719 H   0  0
   -6.1800  -21.9494   49.5693 H   0  0
   -7.3687  -24.4356   51.8215 H   0  0
   -7.3128  -25.2564   50.3014 H   0  0
   -8.1027  -23.5994   50.3604 H   0  0
   -5.9686  -29.1664   50.7619 H   0  0
   -4.8352  -30.1698   51.6547 H   0  0
   -3.5809  -29.6744   49.7455 H   0  0
   -4.2807  -28.0617   49.5669 H   0  0
   -2.2398  -28.0414   48.3418 H   0  0
   -0.8517  -26.3303   47.1918 H   0  0
    0.4981  -22.9081   46.0669 H   0  0
    2.2067  -24.6100   49.6848 H   0  0
    2.2118  -22.9114   48.6812 H   0  0
    1.9896  -24.0835   46.6963 H   0  0
    1.9828  -25.7825   47.7002 H   0  0
    0.1370  -24.5603   51.0028 H   0  0
   -1.2467  -26.2689   52.1584 H   0  0
   -1.6181  -28.1587   52.7895 H   0  0
   -2.4488  -29.6842   52.4476 H   0  0
   -3.7844  -28.7717   54.1480 H   0  0
   -3.5484  -27.1209   53.6007 H   0  0
  1  2  1  0
  2  3  1  0
  2  4  1  0
  4  5  2  0
  4  9  1  0
  5  6  1  0
  6  7  2  0
  7  8  1  0
  8  9  2  0
  9 10  1  0
 10 11  1  0
 10 20  1  0
 10 36  1  0
 11 12  2  0
 11 13  1  0
 13 14  1  0
 14 15  2  0
 14 18  1  0
 15 16  1  0
 16 17  2  0
 17 18  1  0
 18 19  1  0
 20 21  1  0
 21 22  1  0
 22 23  1  0
 22 35  1  0
 23 24  2  0
 23 34  1  0
 24 25  1  0
 25 26  2  0
 26 27  1  0
 26 33  1  0
 27 28  1  0
 27 31  1  0
 27 32  1  0
 28 29  2  0
 28 30  1  0
 31 32  1  0
 33 34  2  0
 35 36  1  0
  1 37  1  0
  1 38  1  0
  1 39  1  0
  2 40  1  0
  3 41  1  0
  3 42  1  0
  3 43  1  0
  5 44  1  0
  6 45  1  0
  7 46  1  0
  8 47  1  0
 13 48  1  0
 16 49  1  0
 17 50  1  0
 19 51  1  0
 19 52  1  0
 19 53  1  0
 20 54  1  0
 20 55  1  0
 21 56  1  0
 21 57  1  0
 24 58  1  0
 25 59  1  0
 30 60  1  0
 31 61  1  0
 31 62  1  0
 32 63  1  0
 32 64  1  0
 33 65  1  0
 34 66  1  0
 35 67  1  0
 35 68  1  0
 36 69  1  0
 36 70  1  0
M  END
> <Name>
Molecule

> <AbsoluteEnergy>
59.7716

> <Clean Energy>
216.53

> <ConfNumber>
57

> <MOL_NUMBER>
7

> <RelativeEnergy>
15.9986

> <POSE_NUMBER>
32

> <LibDockScore>
119.7376

> <HotSpots>
-8.73,-28.12,54.38,A,70,7
-7.33,-24.12,50.38,A,44,19
1.87,-25.32,48.38,A,30,31

$$$$
Molecule
  SciTegic05072616053D

 70 74  0  0  0  0            999 V2000
   -3.4289  -24.1415   46.2857 C   0  0  0  1  0  0
   -2.9356  -25.5236   46.7515 C   0  0  0  1  0  0
   -3.2309  -26.6062   45.6976 C   0  0  0  1  0  0
   -1.4766  -25.4961   47.1609 C   0  0  0  1  0  0
   -0.5353  -25.2417   46.1429 C   0  0  0  1  0  0
    0.8332  -25.1605   46.4240 C   0  0  0  1  0  0
    1.2835  -25.3356   47.7359 C   0  0  0  1  0  0
    0.3688  -25.6047   48.7654 C   0  0  0  1  0  0
   -1.0236  -25.7083   48.5047 C   0  0  0  1  0  0
   -2.0178  -26.0308   49.6282 C   0  0  0  1  0  0
   -2.9731  -24.8267   49.7689 C   0  0  0  1  0  0
   -2.4997  -23.7166   49.7162 O   0  0  0  1  0  0
   -4.3345  -24.9860   49.9443 N   0  0  0  1  0  0
   -5.3827  -23.9391   50.1161 C   0  0  0  1  0  0
   -6.7055  -24.2930   50.1224 N   0  0  0  1  0  0
   -7.4276  -23.1687   50.2760 C   0  0  0  1  0  0
   -6.5508  -22.1025   50.3723 C   0  0  0  1  0  0
   -5.2838  -22.5666   50.2829 N   0  0  0  1  0  0
   -4.0996  -21.6887   50.3521 C   0  0  0  1  0  0
   -2.6752  -27.4298   49.2820 C   0  0  0  1  0  0
   -2.6190  -28.4805   50.4074 C   0  0  0  1  0  0
   -3.1297  -27.8663   51.6527 N   0  0  0  1  0  0
   -4.2982  -28.3294   52.2447 C   0  0  0  1  0  0
   -5.2146  -27.4270   52.8272 C   0  0  0  1  0  0
   -6.4678  -27.8760   53.2735 C   0  0  0  1  0  0
   -6.8166  -29.2361   53.1634 C   0  0  0  1  0  0
   -8.2228  -29.6857   53.5148 C   0  0  0  1  0  0
   -9.1319  -29.7752   52.2759 C   0  0  0  1  0  0
   -8.8582  -29.1067   51.3018 O   0  0  0  1  0  0
  -10.2058  -30.5710   52.2711 O   0  0  0  1  0  0
   -8.4143  -30.6550   54.6754 C   0  0  0  1  0  0
   -8.8449  -29.2152   54.8209 C   0  0  0  1  0  0
   -5.8646  -30.1603   52.6942 C   0  0  0  1  0  0
   -4.6120  -29.7096   52.2388 C   0  0  0  1  0  0
   -2.3535  -26.6874   52.1409 C   0  0  0  1  0  0
   -1.3729  -26.1666   51.0525 C   0  0  0  1  0  0
   -4.5032  -24.1948   46.1090 H   0  0
   -2.9274  -23.8875   45.3518 H   0  0
   -3.2122  -23.3876   47.0426 H   0  0
   -3.4980  -25.7890   47.6467 H   0  0
   -2.7308  -26.3350   44.7679 H   0  0
   -4.3065  -26.6422   45.5250 H   0  0
   -2.8757  -27.5772   46.0428 H   0  0
   -0.8798  -25.1057   45.1177 H   0  0
    1.5453  -24.9615   45.6231 H   0  0
    2.3478  -25.2629   47.9596 H   0  0
    0.7335  -25.7367   49.7840 H   0  0
   -4.6839  -25.9972   49.9588 H   0  0
   -8.5151  -23.1079   50.3174 H   0  0
   -6.8353  -21.0580   50.4996 H   0  0
   -3.5899  -21.9705   49.4308 H   0  0
   -3.5327  -22.1825   51.1413 H   0  0
   -4.2464  -20.6174   50.4898 H   0  0
   -2.1817  -27.8396   48.4007 H   0  0
   -3.7185  -27.2675   49.0113 H   0  0
   -1.5886  -28.8036   50.5558 H   0  0
   -3.2403  -29.3354   50.1405 H   0  0
   -4.9475  -26.3753   52.9311 H   0  0
   -7.1743  -27.1684   53.7074 H   0  0
  -10.7626  -30.2581   53.1045 H   0  0
   -7.4750  -30.8485   55.1935 H   0  0
   -9.2655  -31.3148   54.5077 H   0  0
   -9.9261  -29.1079   54.7334 H   0  0
   -8.1356  -28.6414   55.4174 H   0  0
   -6.0976  -31.2250   52.6836 H   0  0
   -3.8770  -30.4294   51.8784 H   0  0
   -1.7865  -26.9723   53.0272 H   0  0
   -3.0454  -25.8897   52.4114 H   0  0
   -0.9906  -25.1937   51.3613 H   0  0
   -0.5233  -26.8467   50.9910 H   0  0
  1  2  1  0
  2  3  1  0
  2  4  1  0
  4  5  2  0
  4  9  1  0
  5  6  1  0
  6  7  2  0
  7  8  1  0
  8  9  2  0
  9 10  1  0
 10 11  1  0
 10 20  1  0
 10 36  1  0
 11 12  2  0
 11 13  1  0
 13 14  1  0
 14 15  2  0
 14 18  1  0
 15 16  1  0
 16 17  2  0
 17 18  1  0
 18 19  1  0
 20 21  1  0
 21 22  1  0
 22 23  1  0
 22 35  1  0
 23 24  2  0
 23 34  1  0
 24 25  1  0
 25 26  2  0
 26 27  1  0
 26 33  1  0
 27 28  1  0
 27 31  1  0
 27 32  1  0
 28 29  2  0
 28 30  1  0
 31 32  1  0
 33 34  2  0
 35 36  1  0
  1 37  1  0
  1 38  1  0
  1 39  1  0
  2 40  1  0
  3 41  1  0
  3 42  1  0
  3 43  1  0
  5 44  1  0
  6 45  1  0
  7 46  1  0
  8 47  1  0
 13 48  1  0
 16 49  1  0
 17 50  1  0
 19 51  1  0
 19 52  1  0
 19 53  1  0
 20 54  1  0
 20 55  1  0
 21 56  1  0
 21 57  1  0
 24 58  1  0
 25 59  1  0
 30 60  1  0
 31 61  1  0
 31 62  1  0
 32 63  1  0
 32 64  1  0
 33 65  1  0
 34 66  1  0
 35 67  1  0
 35 68  1  0
 36 69  1  0
 36 70  1  0
M  END
> <Name>
Molecule

> <AbsoluteEnergy>
57.5509

> <Clean Energy>
216.53

> <ConfNumber>
43

> <MOL_NUMBER>
7

> <RelativeEnergy>
13.7779

> <POSE_NUMBER>
33

> <LibDockScore>
119.1175

> <HotSpots>
-2.93,-26.32,45.98,A,15,3
-3.33,-21.92,50.38,A,47,19
-6.53,-30.72,51.78,A,56,33

$$$$
Molecule
  SciTegic05072616053D

 70 74  0  0  0  0            999 V2000
   -5.6070  -31.9396   52.8272 C   0  0  0  1  0  0
   -5.2124  -31.5871   54.2681 C   0  0  0  1  0  0
   -6.3853  -31.6535   55.2661 C   0  0  0  1  0  0
   -4.2403  -30.4255   54.4800 C   0  0  0  1  0  0
   -3.2633  -30.6801   55.4765 C   0  0  0  1  0  0
   -2.2783  -29.7504   55.8147 C   0  0  0  1  0  0
   -2.2405  -28.5249   55.1580 C   0  0  0  1  0  0
   -3.1922  -28.2344   54.1746 C   0  0  0  1  0  0
   -4.2173  -29.1443   53.8051 C   0  0  0  1  0  0
   -5.2106  -28.6754   52.7226 C   0  0  0  1  0  0
   -6.6585  -29.0143   53.0933 C   0  0  0  1  0  0
   -7.3716  -29.5340   52.2707 O   0  0  0  1  0  0
   -7.1327  -28.7050   54.3576 N   0  0  0  1  0  0
   -8.3689  -29.1730   55.0436 C   0  0  0  1  0  0
   -8.6481  -28.7526   56.3144 N   0  0  0  1  0  0
   -9.8007  -29.3313   56.6941 C   0  0  0  1  0  0
  -10.2497  -30.1173   55.6472 C   0  0  0  1  0  0
   -9.3768  -30.0179   54.6175 N   0  0  0  1  0  0
   -9.5558  -30.7094   53.3285 C   0  0  0  1  0  0
   -4.8255  -29.2189   51.3243 C   0  0  0  1  0  0
   -3.4532  -28.7560   50.8243 C   0  0  0  1  0  0
   -3.2915  -27.2721   50.7827 N   0  0  0  1  0  0
   -2.3060  -26.6837   49.9739 C   0  0  0  1  0  0
   -1.5317  -27.4576   49.0726 C   0  0  0  1  0  0
   -0.5588  -26.8621   48.2515 C   0  0  0  1  0  0
   -0.3286  -25.4771   48.3138 C   0  0  0  1  0  0
    0.7149  -24.8309   47.4252 C   0  0  0  1  0  0
    2.0498  -24.5507   48.1189 C   0  0  0  1  0  0
    2.0697  -24.2854   49.3011 O   0  0  0  1  0  0
    3.1745  -24.6003   47.4005 O   0  0  0  1  0  0
    0.2489  -23.8378   46.3699 C   0  0  0  1  0  0
    0.7376  -25.2030   45.9499 C   0  0  0  1  0  0
   -1.0742  -24.6960   49.2116 C   0  0  0  1  0  0
   -2.0478  -25.2908   50.0317 C   0  0  0  1  0  0
   -4.1875  -26.4147   51.6292 C   0  0  0  1  0  0
   -5.2694  -27.1208   52.4939 C   0  0  0  1  0  0
   -6.3894  -31.2455   52.5204 H   0  0
   -6.0241  -32.9466   52.8366 H   0  0
   -4.7514  -31.8809   52.1544 H   0  0
   -4.5587  -32.4193   54.5292 H   0  0
   -6.7891  -32.6654   55.2336 H   0  0
   -7.1544  -30.9642   54.9175 H   0  0
   -6.0638  -31.3969   56.2755 H   0  0
   -3.2824  -31.6373   55.9976 H   0  0
   -1.5450  -29.9830   56.5869 H   0  0
   -1.4722  -27.7935   55.4086 H   0  0
   -3.1446  -27.2689   53.6710 H   0  0
   -6.5223  -28.0324   54.9232 H   0  0
  -10.2948  -29.2038   57.6573 H   0  0
  -11.1587  -30.7188   55.6512 H   0  0
   -8.6001  -31.2264   53.2415 H   0  0
   -9.4809  -29.8706   52.6365 H   0  0
  -10.4340  -31.3405   53.1927 H   0  0
   -4.8371  -30.3084   51.3557 H   0  0
   -5.5829  -28.9077   50.6049 H   0  0
   -2.6829  -29.1742   51.4723 H   0  0
   -3.2896  -29.1541   49.8229 H   0  0
   -1.6940  -28.5339   49.0155 H   0  0
    0.0201  -27.4776   47.5629 H   0  0
    3.0281  -23.9187   46.6154 H   0  0
    0.9985  -23.0681   46.1864 H   0  0
   -0.8386  -23.7717   46.3364 H   0  0
   -0.0894  -25.8644   45.6914 H   0  0
    1.7479  -25.1612   45.5430 H   0  0
   -0.8967  -23.6223   49.2726 H   0  0
   -2.6150  -24.6699   50.7251 H   0  0
   -4.6876  -25.6992   50.9765 H   0  0
   -3.5588  -25.8188   52.2907 H   0  0
   -5.2778  -26.6393   53.4717 H   0  0
   -6.2430  -26.8837   52.0649 H   0  0
  1  2  1  0
  2  3  1  0
  2  4  1  0
  4  5  2  0
  4  9  1  0
  5  6  1  0
  6  7  2  0
  7  8  1  0
  8  9  2  0
  9 10  1  0
 10 11  1  0
 10 20  1  0
 10 36  1  0
 11 12  2  0
 11 13  1  0
 13 14  1  0
 14 15  2  0
 14 18  1  0
 15 16  1  0
 16 17  2  0
 17 18  1  0
 18 19  1  0
 20 21  1  0
 21 22  1  0
 22 23  1  0
 22 35  1  0
 23 24  2  0
 23 34  1  0
 24 25  1  0
 25 26  2  0
 26 27  1  0
 26 33  1  0
 27 28  1  0
 27 31  1  0
 27 32  1  0
 28 29  2  0
 28 30  1  0
 31 32  1  0
 33 34  2  0
 35 36  1  0
  1 37  1  0
  1 38  1  0
  1 39  1  0
  2 40  1  0
  3 41  1  0
  3 42  1  0
  3 43  1  0
  5 44  1  0
  6 45  1  0
  7 46  1  0
  8 47  1  0
 13 48  1  0
 16 49  1  0
 17 50  1  0
 19 51  1  0
 19 52  1  0
 19 53  1  0
 20 54  1  0
 20 55  1  0
 21 56  1  0
 21 57  1  0
 24 58  1  0
 25 59  1  0
 30 60  1  0
 31 61  1  0
 31 62  1  0
 32 63  1  0
 32 64  1  0
 33 65  1  0
 34 66  1  0
 35 67  1  0
 35 68  1  0
 36 69  1  0
 36 70  1  0
M  END
> <Name>
Molecule

> <AbsoluteEnergy>
62.8745

> <Clean Energy>
216.53

> <ConfNumber>
85

> <MOL_NUMBER>
7

> <RelativeEnergy>
19.1015

> <POSE_NUMBER>
34

> <LibDockScore>
119.0179

> <HotSpots>
-1.73,-29.72,55.59,A,76,6
-9.53,-30.12,52.78,A,62,19
0.27,-22.52,46.78,A,23,31

$$$$
Molecule
  SciTegic05072616053D

 70 74  0  0  0  0            999 V2000
   -2.4877  -23.8661   51.9435 C   0  0  0  1  0  0
   -1.3045  -24.6611   52.5127 C   0  0  0  1  0  0
    0.0015  -24.4872   51.7127 C   0  0  0  1  0  0
   -1.5735  -26.0776   53.0229 C   0  0  0  1  0  0
   -0.7749  -26.4383   54.1384 C   0  0  0  1  0  0
   -0.8737  -27.6850   54.7586 C   0  0  0  1  0  0
   -1.7854  -28.6183   54.2764 C   0  0  0  1  0  0
   -2.5851  -28.3018   53.1730 C   0  0  0  1  0  0
   -2.5121  -27.0514   52.5048 C   0  0  0  1  0  0
   -3.4379  -26.8551   51.2871 C   0  0  0  1  0  0
   -2.7171  -26.1529   50.1313 C   0  0  0  1  0  0
   -3.2836  -25.2734   49.5305 O   0  0  0  1  0  0
   -1.4361  -26.5473   49.7817 N   0  0  0  1  0  0
   -0.5803  -26.0861   48.6535 C   0  0  0  1  0  0
    0.7814  -26.1602   48.7519 N   0  0  0  1  0  0
    1.3024  -25.6699   47.6136 C   0  0  0  1  0  0
    0.2548  -25.2905   46.7926 C   0  0  0  1  0  0
   -0.9142  -25.5537   47.4220 N   0  0  0  1  0  0
   -2.2366  -25.2942   46.8258 C   0  0  0  1  0  0
   -4.7490  -26.1306   51.6812 C   0  0  0  1  0  0
   -5.6027  -26.8855   52.7053 C   0  0  0  1  0  0
   -5.9708  -28.2704   52.2854 N   0  0  0  1  0  0
   -7.0658  -28.9266   52.8704 C   0  0  0  1  0  0
   -7.8268  -28.3181   53.9005 C   0  0  0  1  0  0
   -8.9333  -28.9707   54.4709 C   0  0  0  1  0  0
   -9.3052  -30.2528   54.0314 C   0  0  0  1  0  0
  -10.5015  -30.9564   54.6396 C   0  0  0  1  0  0
  -10.4468  -31.0941   56.1626 C   0  0  0  1  0  0
   -9.4552  -30.7421   56.7635 O   0  0  0  1  0  0
  -11.4998  -31.6080   56.8034 O   0  0  0  1  0  0
  -11.1489  -32.0883   53.8541 C   0  0  0  1  0  0
  -11.8619  -30.7640   53.9854 C   0  0  0  1  0  0
   -8.5542  -30.8786   53.0233 C   0  0  0  1  0  0
   -7.4488  -30.2259   52.4520 C   0  0  0  1  0  0
   -5.1456  -28.9608   51.2381 C   0  0  0  1  0  0
   -3.9539  -28.1801   50.6159 C   0  0  0  1  0  0
   -2.6410  -24.1938   50.9153 H   0  0
   -2.2025  -22.8141   51.9309 H   0  0
   -3.3900  -24.0158   52.5364 H   0  0
   -1.1345  -24.1561   53.4636 H   0  0
    0.2440  -23.4246   51.7041 H   0  0
   -0.1944  -24.8043   50.6884 H   0  0
    0.8152  -25.0667   52.1487 H   0  0
   -0.0573  -25.7150   54.5257 H   0  0
   -0.2417  -27.9251   55.6136 H   0  0
   -1.8764  -29.5927   54.7564 H   0  0
   -3.2940  -29.0465   52.8112 H   0  0
   -0.9979  -27.2911   50.4139 H   0  0
    2.3635  -25.5859   47.3786 H   0  0
    0.3549  -24.8510   45.8002 H   0  0
   -2.6970  -24.6914   47.6086 H   0  0
   -2.6994  -26.2762   46.9242 H   0  0
   -2.2824  -24.8623   45.8261 H   0  0
   -4.4999  -25.1505   52.0880 H   0  0
   -5.3442  -25.9665   50.7829 H   0  0
   -5.0573  -26.9385   53.6476 H   0  0
   -6.5168  -26.3205   52.8879 H   0  0
   -7.5486  -27.3261   54.2565 H   0  0
   -9.5058  -28.4800   55.2580 H   0  0
  -11.6557  -32.5486   56.3635 H   0  0
  -11.5749  -32.8420   54.5163 H   0  0
  -10.6926  -32.2040   52.8710 H   0  0
  -11.7866  -30.1743   53.0718 H   0  0
  -12.6677  -30.8116   54.7179 H   0  0
   -8.8303  -31.8763   52.6821 H   0  0
   -6.8752  -30.7278   51.6728 H   0  0
   -5.8102  -29.2671   50.4303 H   0  0
   -4.7597  -29.8855   51.6671 H   0  0
   -3.1110  -28.8671   50.5413 H   0  0
   -4.2115  -27.9513   49.5818 H   0  0
  1  2  1  0
  2  3  1  0
  2  4  1  0
  4  5  2  0
  4  9  1  0
  5  6  1  0
  6  7  2  0
  7  8  1  0
  8  9  2  0
  9 10  1  0
 10 11  1  0
 10 20  1  0
 10 36  1  0
 11 12  2  0
 11 13  1  0
 13 14  1  0
 14 15  2  0
 14 18  1  0
 15 16  1  0
 16 17  2  0
 17 18  1  0
 18 19  1  0
 20 21  1  0
 21 22  1  0
 22 23  1  0
 22 35  1  0
 23 24  2  0
 23 34  1  0
 24 25  1  0
 25 26  2  0
 26 27  1  0
 26 33  1  0
 27 28  1  0
 27 31  1  0
 27 32  1  0
 28 29  2  0
 28 30  1  0
 31 32  1  0
 33 34  2  0
 35 36  1  0
  1 37  1  0
  1 38  1  0
  1 39  1  0
  2 40  1  0
  3 41  1  0
  3 42  1  0
  3 43  1  0
  5 44  1  0
  6 45  1  0
  7 46  1  0
  8 47  1  0
 13 48  1  0
 16 49  1  0
 17 50  1  0
 19 51  1  0
 19 52  1  0
 19 53  1  0
 20 54  1  0
 20 55  1  0
 21 56  1  0
 21 57  1  0
 24 58  1  0
 25 59  1  0
 30 60  1  0
 31 61  1  0
 31 62  1  0
 32 63  1  0
 32 64  1  0
 33 65  1  0
 34 66  1  0
 35 67  1  0
 35 68  1  0
 36 69  1  0
 36 70  1  0
M  END
> <Name>
Molecule

> <AbsoluteEnergy>
62.8745

> <Clean Energy>
216.53

> <ConfNumber>
85

> <MOL_NUMBER>
7

> <RelativeEnergy>
19.1015

> <POSE_NUMBER>
35

> <LibDockScore>
118.5932

> <HotSpots>
-0.33,-25.52,53.19,A,64,3
-0.93,-28.12,54.98,A,74,5
-9.53,-30.12,52.78,A,62,33

$$$$
Molecule
  SciTegic05072616053D

 70 74  0  0  0  0            999 V2000
    2.2047  -25.5844   52.7578 C   0  0  0  1  0  0
    0.8134  -24.9523   52.5573 C   0  0  0  1  0  0
    0.6728  -23.6388   53.3509 C   0  0  0  1  0  0
    0.4725  -24.7501   51.0959 C   0  0  0  1  0  0
    1.3820  -23.9651   50.3501 C   0  0  0  1  0  0
    1.2047  -23.7448   48.9808 C   0  0  0  1  0  0
    0.1144  -24.3173   48.3262 C   0  0  0  1  0  0
   -0.8052  -25.0884   49.0452 C   0  0  0  1  0  0
   -0.6860  -25.2962   50.4466 C   0  0  0  1  0  0
   -1.7829  -26.0896   51.1785 C   0  0  0  1  0  0
   -3.2133  -25.7377   50.6908 C   0  0  0  1  0  0
   -3.7602  -26.4494   49.8850 O   0  0  0  1  0  0
   -3.8796  -24.6339   51.1955 N   0  0  0  1  0  0
   -4.9942  -23.8593   50.5843 C   0  0  0  1  0  0
   -5.8280  -23.1231   51.3800 N   0  0  0  1  0  0
   -6.7777  -22.5906   50.5917 C   0  0  0  1  0  0
   -6.5172  -22.9728   49.2869 C   0  0  0  1  0  0
   -5.3943  -23.7262   49.2660 N   0  0  0  1  0  0
   -4.7888  -24.2419   48.0234 C   0  0  0  1  0  0
   -1.8148  -25.8184   52.7316 C   0  0  0  1  0  0
   -2.9180  -26.6072   53.4848 C   0  0  0  1  0  0
   -3.2849  -27.8575   52.7561 N   0  0  0  1  0  0
   -4.5954  -28.3079   52.6281 C   0  0  0  1  0  0
   -5.6768  -27.4156   52.8078 C   0  0  0  1  0  0
   -6.9956  -27.8322   52.5935 C   0  0  0  1  0  0
   -7.2635  -29.1576   52.2137 C   0  0  0  1  0  0
   -8.6851  -29.5813   51.9353 C   0  0  0  1  0  0
   -9.5587  -29.6198   53.1809 C   0  0  0  1  0  0
  -10.4233  -30.4601   53.2719 O   0  0  0  1  0  0
   -9.3523  -28.7217   54.1437 O   0  0  0  1  0  0
   -9.3256  -29.1129   50.6385 C   0  0  0  1  0  0
   -8.9615  -30.5662   50.8108 C   0  0  0  1  0  0
   -6.2031  -30.0720   52.0849 C   0  0  0  1  0  0
   -4.8775  -29.6516   52.2908 C   0  0  0  1  0  0
   -2.1412  -28.5310   52.0801 C   0  0  0  1  0  0
   -1.5720  -27.6336   50.9507 C   0  0  0  1  0  0
    2.3477  -25.7830   53.8200 H   0  0
    2.9616  -24.8743   52.4247 H   0  0
    2.2858  -26.5112   52.1899 H   0  0
    0.0887  -25.6639   52.9529 H   0  0
    1.4413  -22.9435   53.0133 H   0  0
    0.8274  -23.8522   54.4086 H   0  0
   -0.3160  -23.2067   53.1973 H   0  0
    2.2407  -23.5217   50.8541 H   0  0
    1.9145  -23.1292   48.4282 H   0  0
   -0.0211  -24.1641   47.2556 H   0  0
   -1.6403  -25.5447   48.5137 H   0  0
   -3.5488  -24.2916   52.1538 H   0  0
   -7.6081  -21.9667   50.9222 H   0  0
   -7.1194  -22.7093   48.4174 H   0  0
   -4.7117  -25.3022   48.2642 H   0  0
   -3.7721  -23.8622   48.1244 H   0  0
   -5.2723  -24.0187   47.0723 H   0  0
   -1.9680  -24.7526   52.9011 H   0  0
   -0.8451  -26.0802   53.1550 H   0  0
   -2.5581  -26.8660   54.4806 H   0  0
   -3.8035  -25.9798   53.5866 H   0  0
   -5.4809  -26.3890   53.1175 H   0  0
   -7.8165  -27.1266   52.7216 H   0  0
   -9.4429  -27.7885   53.6709 H   0  0
   -8.6092  -28.5910   50.0041 H   0  0
  -10.3966  -28.9492   50.7582 H   0  0
   -9.8383  -31.1785   51.0216 H   0  0
   -8.0504  -30.8200   50.2690 H   0  0
   -6.4096  -31.1101   51.8246 H   0  0
   -4.0612  -30.3668   52.1897 H   0  0
   -2.4786  -29.4758   51.6538 H   0  0
   -1.3575  -28.7312   52.8108 H   0  0
   -0.5049  -27.8322   50.8511 H   0  0
   -2.0419  -27.9169   50.0088 H   0  0
  1  2  1  0
  2  3  1  0
  2  4  1  0
  4  5  2  0
  4  9  1  0
  5  6  1  0
  6  7  2  0
  7  8  1  0
  8  9  2  0
  9 10  1  0
 10 11  1  0
 10 20  1  0
 10 36  1  0
 11 12  2  0
 11 13  1  0
 13 14  1  0
 14 15  2  0
 14 18  1  0
 15 16  1  0
 16 17  2  0
 17 18  1  0
 18 19  1  0
 20 21  1  0
 21 22  1  0
 22 23  1  0
 22 35  1  0
 23 24  2  0
 23 34  1  0
 24 25  1  0
 25 26  2  0
 26 27  1  0
 26 33  1  0
 27 28  1  0
 27 31  1  0
 27 32  1  0
 28 29  2  0
 28 30  1  0
 31 32  1  0
 33 34  2  0
 35 36  1  0
  1 37  1  0
  1 38  1  0
  1 39  1  0
  2 40  1  0
  3 41  1  0
  3 42  1  0
  3 43  1  0
  5 44  1  0
  6 45  1  0
  7 46  1  0
  8 47  1  0
 13 48  1  0
 16 49  1  0
 17 50  1  0
 19 51  1  0
 19 52  1  0
 19 53  1  0
 20 54  1  0
 20 55  1  0
 21 56  1  0
 21 57  1  0
 24 58  1  0
 25 59  1  0
 30 60  1  0
 31 61  1  0
 31 62  1  0
 32 63  1  0
 32 64  1  0
 33 65  1  0
 34 66  1  0
 35 67  1  0
 35 68  1  0
 36 69  1  0
 36 70  1  0
M  END
> <Name>
Molecule

> <AbsoluteEnergy>
56.4218

> <Clean Energy>
216.53

> <ConfNumber>
40

> <MOL_NUMBER>
7

> <RelativeEnergy>
12.6488

> <POSE_NUMBER>
36

> <LibDockScore>
118.5887

> <HotSpots>
1.67,-24.32,50.98,A,50,5
-7.33,-24.12,50.38,A,44,17
-8.53,-31.32,51.19,A,51,32

$$$$
Molecule
  SciTegic05072616053D

 70 74  0  0  0  0            999 V2000
   -5.5702  -31.5711   52.4108 C   0  0  0  1  0  0
   -5.6765  -30.1937   53.0992 C   0  0  0  1  0  0
   -7.0243  -30.0442   53.8295 C   0  0  0  1  0  0
   -4.5090  -29.9183   54.0224 C   0  0  0  1  0  0
   -4.3476  -30.8195   55.1011 C   0  0  0  1  0  0
   -3.2648  -30.7226   55.9795 C   0  0  0  1  0  0
   -2.3150  -29.7178   55.7940 C   0  0  0  1  0  0
   -2.4680  -28.7953   54.7507 C   0  0  0  1  0  0
   -3.5809  -28.8320   53.8654 C   0  0  0  1  0  0
   -3.7179  -27.7294   52.7986 C   0  0  0  1  0  0
   -2.7902  -26.5165   53.0720 C   0  0  0  1  0  0
   -2.8656  -25.9659   54.1490 O   0  0  0  1  0  0
   -1.9130  -26.0185   52.1239 N   0  0  0  1  0  0
   -0.7399  -25.1596   52.4127 C   0  0  0  1  0  0
   -0.3371  -24.7200   53.6427 N   0  0  0  1  0  0
    0.6914  -23.8731   53.4374 C   0  0  0  1  0  0
    0.9582  -23.8336   52.0758 C   0  0  0  1  0  0
    0.0970  -24.6606   51.4474 N   0  0  0  1  0  0
    0.0629  -24.9432   50.0001 C   0  0  0  1  0  0
   -3.5212  -28.3525   51.3722 C   0  0  0  1  0  0
   -4.3256  -27.6616   50.2398 C   0  0  0  1  0  0
   -4.5439  -26.2021   50.4914 N   0  0  0  1  0  0
   -4.1011  -25.2185   49.6005 C   0  0  0  1  0  0
   -3.4444  -25.5753   48.3992 C   0  0  0  1  0  0
   -2.9636  -24.5921   47.5174 C   0  0  0  1  0  0
   -3.1362  -23.2291   47.8101 C   0  0  0  1  0  0
   -2.6059  -22.1750   46.8559 C   0  0  0  1  0  0
   -3.6615  -21.6073   45.8938 C   0  0  0  1  0  0
   -4.6768  -22.2347   45.6917 O   0  0  0  1  0  0
   -3.4725  -20.4316   45.2824 O   0  0  0  1  0  0
   -1.1726  -22.3583   46.3739 C   0  0  0  1  0  0
   -1.5030  -21.2418   47.3346 C   0  0  0  1  0  0
   -3.8005  -22.8586   48.9921 C   0  0  0  1  0  0
   -4.2783  -23.8406   49.8746 C   0  0  0  1  0  0
   -5.2343  -25.8724   51.7807 C   0  0  0  1  0  0
   -5.1138  -27.0131   52.8249 C   0  0  0  1  0  0
   -6.3857  -31.6704   51.6944 H   0  0
   -5.6632  -32.3506   53.1670 H   0  0
   -4.6124  -31.6627   51.8986 H   0  0
   -5.6336  -29.4389   52.3140 H   0  0
   -7.1088  -30.8327   54.5773 H   0  0
   -7.8312  -30.1525   53.1048 H   0  0
   -7.0854  -29.0679   54.3104 H   0  0
   -5.0852  -31.6080   55.2506 H   0  0
   -3.1631  -31.4278   56.8044 H   0  0
   -1.4548  -29.6505   56.4600 H   0  0
   -1.7097  -28.0245   54.6129 H   0  0
   -2.0964  -26.2739   51.1011 H   0  0
    1.2225  -23.3150   54.2085 H   0  0
    1.7326  -23.2355   51.5954 H   0  0
   -0.9662  -24.6900   49.7451 H   0  0
    0.1072  -26.0321   49.9819 H   0  0
    0.8126  -24.4533   49.3787 H   0  0
   -3.8039  -29.4046   51.4075 H   0  0
   -2.4618  -28.3165   51.1184 H   0  0
   -5.2941  -28.1518   50.1403 H   0  0
   -3.7893  -27.7819   49.2985 H   0  0
   -3.3093  -26.6287   48.1538 H   0  0
   -2.4537  -24.8890   46.6009 H   0  0
   -2.5552  -20.5451   44.7842 H   0  0
   -1.0426  -21.9887   45.3567 H   0  0
   -0.6855  -23.1927   46.8785 H   0  0
   -1.1906  -21.4802   48.3513 H   0  0
   -1.5493  -20.2769   46.8298 H   0  0
   -3.9455  -21.8036   49.2248 H   0  0
   -4.7941  -23.5373   50.7857 H   0  0
   -6.2890  -25.6826   51.5817 H   0  0
   -4.7982  -24.9634   52.1950 H   0  0
   -5.2825  -26.6003   53.8195 H   0  0
   -5.8938  -27.7502   52.6342 H   0  0
  1  2  1  0
  2  3  1  0
  2  4  1  0
  4  5  2  0
  4  9  1  0
  5  6  1  0
  6  7  2  0
  7  8  1  0
  8  9  2  0
  9 10  1  0
 10 11  1  0
 10 20  1  0
 10 36  1  0
 11 12  2  0
 11 13  1  0
 13 14  1  0
 14 15  2  0
 14 18  1  0
 15 16  1  0
 16 17  2  0
 17 18  1  0
 18 19  1  0
 20 21  1  0
 21 22  1  0
 22 23  1  0
 22 35  1  0
 23 24  2  0
 23 34  1  0
 24 25  1  0
 25 26  2  0
 26 27  1  0
 26 33  1  0
 27 28  1  0
 27 31  1  0
 27 32  1  0
 28 29  2  0
 28 30  1  0
 31 32  1  0
 33 34  2  0
 35 36  1  0
  1 37  1  0
  1 38  1  0
  1 39  1  0
  2 40  1  0
  3 41  1  0
  3 42  1  0
  3 43  1  0
  5 44  1  0
  6 45  1  0
  7 46  1  0
  8 47  1  0
 13 48  1  0
 16 49  1  0
 17 50  1  0
 19 51  1  0
 19 52  1  0
 19 53  1  0
 20 54  1  0
 20 55  1  0
 21 56  1  0
 21 57  1  0
 24 58  1  0
 25 59  1  0
 30 60  1  0
 31 61  1  0
 31 62  1  0
 32 63  1  0
 32 64  1  0
 33 65  1  0
 34 66  1  0
 35 67  1  0
 35 68  1  0
 36 69  1  0
 36 70  1  0
M  END
> <Name>
Molecule

> <AbsoluteEnergy>
56.2652

> <Clean Energy>
216.53

> <ConfNumber>
39

> <MOL_NUMBER>
7

> <RelativeEnergy>
12.4922

> <POSE_NUMBER>
37

> <LibDockScore>
118.4595

> <HotSpots>
-6.53,-30.72,51.78,A,56,1
0.47,-23.32,53.78,A,67,16
0.27,-22.52,46.78,A,23,31

$$$$
Molecule
  SciTegic05072616053D

 70 74  0  0  0  0            999 V2000
   -9.7015  -29.7215   50.0592 C   0  0  0  1  0  0
   -8.4587  -30.0700   50.9157 C   0  0  0  1  0  0
   -8.2486  -31.5957   50.9586 C   0  0  0  1  0  0
   -8.4792  -29.4831   52.3125 C   0  0  0  1  0  0
   -9.6650  -29.7168   53.0551 C   0  0  0  1  0  0
   -9.8423  -29.2142   54.3475 C   0  0  0  1  0  0
   -8.8250  -28.4697   54.9408 C   0  0  0  1  0  0
   -7.6328  -28.2444   54.2431 C   0  0  0  1  0  0
   -7.4063  -28.7378   52.9292 C   0  0  0  1  0  0
   -5.9989  -28.4100   52.3728 C   0  0  0  1  0  0
   -4.9364  -29.0403   53.2912 C   0  0  0  1  0  0
   -4.1324  -28.3210   53.8347 O   0  0  0  1  0  0
   -4.9004  -30.4124   53.5023 N   0  0  0  1  0  0
   -4.6083  -31.1059   54.7850 C   0  0  0  1  0  0
   -5.2462  -32.2650   55.1482 N   0  0  0  1  0  0
   -4.7736  -32.6149   56.3592 C   0  0  0  1  0  0
   -3.8256  -31.6787   56.7436 C   0  0  0  1  0  0
   -3.6985  -30.7579   55.7643 N   0  0  0  1  0  0
   -2.7213  -29.6504   55.7891 C   0  0  0  1  0  0
   -5.8547  -26.8565   52.2565 C   0  0  0  1  0  0
   -4.5014  -26.2889   51.7557 C   0  0  0  1  0  0
   -3.7385  -27.1408   50.7919 N   0  0  0  1  0  0
   -2.6024  -26.6313   50.1631 C   0  0  0  1  0  0
   -2.0432  -25.3788   50.5181 C   0  0  0  1  0  0
   -0.9048  -24.8819   49.8488 C   0  0  0  1  0  0
   -0.2984  -25.6295   48.8202 C   0  0  0  1  0  0
    0.9167  -25.0800   48.0839 C   0  0  0  1  0  0
    2.1056  -24.6959   48.9768 C   0  0  0  1  0  0
    2.6619  -23.6326   48.7945 O   0  0  0  1  0  0
    2.5351  -25.5243   49.9323 O   0  0  0  1  0  0
    0.6575  -24.2428   46.8355 C   0  0  0  1  0  0
    1.2551  -25.6205   46.6988 C   0  0  0  1  0  0
   -0.8376  -26.8887   48.4826 C   0  0  0  1  0  0
   -1.9780  -27.3827   49.1429 C   0  0  0  1  0  0
   -4.1544  -28.5591   50.5516 C   0  0  0  1  0  0
   -5.6176  -28.8713   50.9413 C   0  0  0  1  0  0
  -10.5803  -30.1974   50.4944 H   0  0
   -9.5542  -30.0968   49.0465 H   0  0
   -9.8433  -28.6411   50.0338 H   0  0
   -7.6102  -29.5980   50.4202 H   0  0
   -8.1057  -31.9654   49.9432 H   0  0
   -9.1317  -32.0660   51.3911 H   0  0
   -7.3729  -31.8327   51.5627 H   0  0
  -10.4629  -30.3067   52.6039 H   0  0
  -10.7701  -29.4035   54.8874 H   0  0
   -8.9570  -28.0645   55.9440 H   0  0
   -6.8454  -27.6667   54.7272 H   0  0
   -5.1036  -31.0342   52.6555 H   0  0
   -5.0831  -33.4849   56.9383 H   0  0
   -3.2731  -31.6851   57.6832 H   0  0
   -3.3691  -28.7972   55.5877 H   0  0
   -2.1875  -29.8234   54.8546 H   0  0
   -2.0841  -29.5438   56.6670 H   0  0
   -6.0646  -26.4200   53.2330 H   0  0
   -6.6411  -26.4900   51.5967 H   0  0
   -3.8654  -26.0960   52.6197 H   0  0
   -4.6843  -25.3217   51.2875 H   0  0
   -2.4974  -24.7927   51.3170 H   0  0
   -0.4918  -23.9130   50.1295 H   0  0
    2.7404  -26.4207   49.4255 H   0  0
    1.4098  -23.4634   46.7143 H   0  0
   -0.4006  -24.2345   46.5738 H   0  0
    0.5167  -26.3485   46.3629 H   0  0
    2.3269  -25.5776   46.5050 H   0  0
   -0.3658  -27.4854   47.7019 H   0  0
   -2.3837  -28.3552   48.8642 H   0  0
   -4.0164  -28.7895   49.4952 H   0  0
   -3.4938  -29.2182   51.1149 H   0  0
   -5.7802  -29.9463   50.8629 H   0  0
   -6.2822  -28.3873   50.2257 H   0  0
  1  2  1  0
  2  3  1  0
  2  4  1  0
  4  5  2  0
  4  9  1  0
  5  6  1  0
  6  7  2  0
  7  8  1  0
  8  9  2  0
  9 10  1  0
 10 11  1  0
 10 20  1  0
 10 36  1  0
 11 12  2  0
 11 13  1  0
 13 14  1  0
 14 15  2  0
 14 18  1  0
 15 16  1  0
 16 17  2  0
 17 18  1  0
 18 19  1  0
 20 21  1  0
 21 22  1  0
 22 23  1  0
 22 35  1  0
 23 24  2  0
 23 34  1  0
 24 25  1  0
 25 26  2  0
 26 27  1  0
 26 33  1  0
 27 28  1  0
 27 31  1  0
 27 32  1  0
 28 29  2  0
 28 30  1  0
 31 32  1  0
 33 34  2  0
 35 36  1  0
  1 37  1  0
  1 38  1  0
  1 39  1  0
  2 40  1  0
  3 41  1  0
  3 42  1  0
  3 43  1  0
  5 44  1  0
  6 45  1  0
  7 46  1  0
  8 47  1  0
 13 48  1  0
 16 49  1  0
 17 50  1  0
 19 51  1  0
 19 52  1  0
 19 53  1  0
 20 54  1  0
 20 55  1  0
 21 56  1  0
 21 57  1  0
 24 58  1  0
 25 59  1  0
 30 60  1  0
 31 61  1  0
 31 62  1  0
 32 63  1  0
 32 64  1  0
 33 65  1  0
 34 66  1  0
 35 67  1  0
 35 68  1  0
 36 69  1  0
 36 70  1  0
M  END
> <Name>
Molecule

> <AbsoluteEnergy>
62.1473

> <Clean Energy>
216.53

> <ConfNumber>
80

> <MOL_NUMBER>
7

> <RelativeEnergy>
18.3743

> <POSE_NUMBER>
38

> <LibDockScore>
117.9163

> <HotSpots>
-8.53,-31.32,51.19,A,51,3
-6.33,-26.32,51.98,A,57,20
0.27,-24.92,46.38,A,19,31

$$$$
Molecule
  SciTegic05072616053D

 70 74  0  0  0  0            999 V2000
   -3.9521  -25.0917   46.6099 C   0  0  0  1  0  0
   -3.2832  -24.3040   47.7541 C   0  0  0  1  0  0
   -2.9190  -22.8790   47.2837 C   0  0  0  1  0  0
   -4.1453  -24.3078   49.0005 C   0  0  0  1  0  0
   -5.4032  -23.6704   48.8935 C   0  0  0  1  0  0
   -6.3290  -23.7051   49.9429 C   0  0  0  1  0  0
   -6.0155  -24.3937   51.1165 C   0  0  0  1  0  0
   -4.7623  -25.0016   51.2565 C   0  0  0  1  0  0
   -3.7702  -24.9280   50.2409 C   0  0  0  1  0  0
   -2.3804  -25.5454   50.4950 C   0  0  0  1  0  0
   -1.1923  -24.6038   50.2110 C   0  0  0  1  0  0
   -1.3576  -23.4641   49.8527 O   0  0  0  1  0  0
    0.0852  -25.0901   50.4220 N   0  0  0  1  0  0
    1.3929  -24.4700   50.1038 C   0  0  0  1  0  0
    2.5001  -24.8233   50.8189 N   0  0  0  1  0  0
    3.5327  -24.1033   50.3442 C   0  0  0  1  0  0
    3.0593  -23.2995   49.3179 C   0  0  0  1  0  0
    1.7359  -23.5303   49.1558 N   0  0  0  1  0  0
    0.8965  -22.8848   48.1293 C   0  0  0  1  0  0
   -2.3398  -26.8493   49.6099 C   0  0  0  1  0  0
   -3.2518  -27.9915   50.1369 C   0  0  0  1  0  0
   -3.1487  -28.1112   51.6166 N   0  0  0  1  0  0
   -4.1064  -28.7370   52.3997 C   0  0  0  1  0  0
   -4.0895  -28.5204   53.7939 C   0  0  0  1  0  0
   -4.9791  -29.1911   54.6327 C   0  0  0  1  0  0
   -5.9108  -30.0907   54.0923 C   0  0  0  1  0  0
   -6.7846  -30.8849   55.0293 C   0  0  0  1  0  0
   -5.9812  -31.9513   55.7795 C   0  0  0  1  0  0
   -6.5485  -32.8964   56.2826 O   0  0  0  1  0  0
   -4.6533  -31.8033   55.8589 O   0  0  0  1  0  0
   -7.8881  -30.1465   55.7723 C   0  0  0  1  0  0
   -8.2448  -31.1196   54.6721 C   0  0  0  1  0  0
   -5.9958  -30.2601   52.6980 C   0  0  0  1  0  0
   -5.0981  -29.5839   51.8515 C   0  0  0  1  0  0
   -1.9700  -27.4470   52.2226 C   0  0  0  1  0  0
   -2.1099  -25.9366   52.0159 C   0  0  0  1  0  0
   -3.2633  -25.1519   45.7673 H   0  0
   -4.8566  -24.5696   46.2978 H   0  0
   -4.2060  -26.0958   46.9496 H   0  0
   -2.3521  -24.8011   48.0264 H   0  0
   -3.8266  -22.3636   46.9695 H   0  0
   -2.2333  -22.9459   46.4390 H   0  0
   -2.4469  -22.3289   48.0977 H   0  0
   -5.6571  -23.1412   47.9750 H   0  0
   -7.2887  -23.1977   49.8445 H   0  0
   -6.7460  -24.4578   51.9230 H   0  0
   -4.5402  -25.5485   52.1729 H   0  0
    0.1368  -26.0548   50.8821 H   0  0
    4.5610  -24.1445   50.7032 H   0  0
    3.6560  -22.5965   48.7367 H   0  0
    0.0848  -22.4911   48.7411 H   0  0
    0.4733  -23.7555   47.6284 H   0  0
    1.3626  -22.1570   47.4651 H   0  0
   -2.6449  -26.5961   48.5946 H   0  0
   -1.3133  -27.2129   49.5626 H   0  0
   -2.9516  -28.9339   49.6789 H   0  0
   -4.2862  -27.7812   49.8649 H   0  0
   -3.3719  -27.8198   54.2208 H   0  0
   -4.9507  -29.0166   55.7083 H   0  0
   -4.5023  -30.8633   56.3018 H   0  0
   -7.9734  -29.1127   55.4377 H   0  0
   -8.0609  -30.5749   56.7596 H   0  0
   -8.6082  -32.0653   55.0742 H   0  0
   -8.5190  -30.6034   53.7521 H   0  0
   -6.7569  -30.9150   52.2738 H   0  0
   -5.1669  -29.7128   50.7713 H   0  0
   -1.9330  -27.6680   53.2893 H   0  0
   -1.0598  -27.7993   51.7373 H   0  0
   -1.1957  -25.4473   52.3519 H   0  0
   -2.9325  -25.5703   52.6302 H   0  0
  1  2  1  0
  2  3  1  0
  2  4  1  0
  4  5  2  0
  4  9  1  0
  5  6  1  0
  6  7  2  0
  7  8  1  0
  8  9  2  0
  9 10  1  0
 10 11  1  0
 10 20  1  0
 10 36  1  0
 11 12  2  0
 11 13  1  0
 13 14  1  0
 14 15  2  0
 14 18  1  0
 15 16  1  0
 16 17  2  0
 17 18  1  0
 18 19  1  0
 20 21  1  0
 21 22  1  0
 22 23  1  0
 22 35  1  0
 23 24  2  0
 23 34  1  0
 24 25  1  0
 25 26  2  0
 26 27  1  0
 26 33  1  0
 27 28  1  0
 27 31  1  0
 27 32  1  0
 28 29  2  0
 28 30  1  0
 31 32  1  0
 33 34  2  0
 35 36  1  0
  1 37  1  0
  1 38  1  0
  1 39  1  0
  2 40  1  0
  3 41  1  0
  3 42  1  0
  3 43  1  0
  5 44  1  0
  6 45  1  0
  7 46  1  0
  8 47  1  0
 13 48  1  0
 16 49  1  0
 17 50  1  0
 19 51  1  0
 19 52  1  0
 19 53  1  0
 20 54  1  0
 20 55  1  0
 21 56  1  0
 21 57  1  0
 24 58  1  0
 25 59  1  0
 30 60  1  0
 31 61  1  0
 31 62  1  0
 32 63  1  0
 32 64  1  0
 33 65  1  0
 34 66  1  0
 35 67  1  0
 35 68  1  0
 36 69  1  0
 36 70  1  0
M  END
> <Name>
Molecule

> <AbsoluteEnergy>
61.2976

> <Clean Energy>
216.53

> <ConfNumber>
69

> <MOL_NUMBER>
7

> <RelativeEnergy>
17.5246

> <POSE_NUMBER>
39

> <LibDockScore>
117.6153

> <HotSpots>
-4.53,-24.52,46.19,A,17,1
-5.93,-24.72,51.19,A,53,7
2.47,-25.32,48.78,P,32,15

$$$$
Molecule
  SciTegic05072616053D

 70 74  0  0  0  0            999 V2000
   -4.6290  -25.0196   46.2854 C   0  0  0  1  0  0
   -4.0902  -24.3114   47.5450 C   0  0  0  1  0  0
   -5.2455  -23.7373   48.3890 C   0  0  0  1  0  0
   -3.0546  -23.2550   47.2044 C   0  0  0  1  0  0
   -3.5278  -22.1687   46.4341 C   0  0  0  1  0  0
   -2.6750  -21.1472   46.0061 C   0  0  0  1  0  0
   -1.3200  -21.1950   46.3381 C   0  0  0  1  0  0
   -0.8259  -22.2532   47.1109 C   0  0  0  1  0  0
   -1.6704  -23.2907   47.5964 C   0  0  0  1  0  0
   -1.0773  -24.3928   48.4894 C   0  0  0  1  0  0
    0.4606  -24.3373   48.6616 C   0  0  0  1  0  0
    1.1321  -25.2756   48.3047 O   0  0  0  1  0  0
    1.0832  -23.2361   49.2234 N   0  0  0  1  0  0
    2.4700  -23.1643   49.7529 C   0  0  0  1  0  0
    3.1499  -21.9805   49.7891 N   0  0  0  1  0  0
    4.3748  -22.2353   50.2839 C   0  0  0  1  0  0
    4.4501  -23.5870   50.5792 C   0  0  0  1  0  0
    3.2640  -24.1632   50.2823 N   0  0  0  1  0  0
    2.9416  -25.5785   50.5466 C   0  0  0  1  0  0
   -1.6263  -24.3086   49.9581 C   0  0  0  1  0  0
   -1.2965  -25.5502   50.8030 C   0  0  0  1  0  0
   -1.7654  -26.7792   50.1067 N   0  0  0  1  0  0
   -2.7017  -27.6434   50.6661 C   0  0  0  1  0  0
   -3.1930  -28.7566   49.9447 C   0  0  0  1  0  0
   -4.1550  -29.6092   50.5131 C   0  0  0  1  0  0
   -4.6404  -29.3650   51.8103 C   0  0  0  1  0  0
   -5.6813  -30.2758   52.4161 C   0  0  0  1  0  0
   -5.0934  -31.3082   53.3628 C   0  0  0  1  0  0
   -4.7648  -30.9706   54.4772 O   0  0  0  1  0  0
   -4.9582  -32.5638   52.9382 O   0  0  0  1  0  0
   -6.8870  -30.6868   51.5811 C   0  0  0  1  0  0
   -7.0618  -29.7195   52.7249 C   0  0  0  1  0  0
   -4.1475  -28.2680   52.5391 C   0  0  0  1  0  0
   -3.1833  -27.4188   51.9739 C   0  0  0  1  0  0
   -1.1641  -26.9981   48.7654 C   0  0  0  1  0  0
   -1.4052  -25.7877   47.8417 C   0  0  0  1  0  0
   -5.1926  -24.3011   45.6903 H   0  0
   -5.2929  -25.8280   46.5917 H   0  0
   -3.8029  -25.4206   45.6981 H   0  0
   -3.5788  -25.0592   48.1511 H   0  0
   -5.9061  -24.5526   48.6841 H   0  0
   -5.8058  -23.0256   47.7827 H   0  0
   -4.8516  -23.2400   49.2753 H   0  0
   -4.5838  -22.1264   46.1672 H   0  0
   -3.0659  -20.3180   45.4164 H   0  0
   -0.6468  -20.4090   45.9960 H   0  0
    0.2376  -22.2831   47.3477 H   0  0
    0.5030  -22.3390   49.2829 H   0  0
    5.1706  -21.5045   50.4277 H   0  0
    5.3219  -24.1009   50.9841 H   0  0
    2.5787  -25.8948   49.5687 H   0  0
    2.0452  -25.4764   51.1582 H   0  0
    3.7173  -26.2138   50.9742 H   0  0
   -1.2038  -23.4292   50.4441 H   0  0
   -2.7084  -24.1818   49.9258 H   0  0
   -0.2187  -25.6095   50.9543 H   0  0
   -1.7913  -25.4726   51.7711 H   0  0
   -2.8222  -28.9549   48.9391 H   0  0
   -4.5263  -30.4630   49.9463 H   0  0
   -4.3719  -32.4994   52.0695 H   0  0
   -7.2323  -31.6869   51.8431 H   0  0
   -6.8973  -30.1773   50.6175 H   0  0
   -7.1682  -28.6937   52.3719 H   0  0
   -7.5014  -30.2028   53.5974 H   0  0
   -4.5157  -28.0764   53.5470 H   0  0
   -2.8022  -26.5765   52.5513 H   0  0
   -1.6052  -27.8868   48.3141 H   0  0
   -0.0914  -27.1577   48.8749 H   0  0
   -0.7999  -25.9089   46.9434 H   0  0
   -2.4489  -25.7914   47.5275 H   0  0
  1  2  1  0
  2  3  1  0
  2  4  1  0
  4  5  2  0
  4  9  1  0
  5  6  1  0
  6  7  2  0
  7  8  1  0
  8  9  2  0
  9 10  1  0
 10 11  1  0
 10 20  1  0
 10 36  1  0
 11 12  2  0
 11 13  1  0
 13 14  1  0
 14 15  2  0
 14 18  1  0
 15 16  1  0
 16 17  2  0
 17 18  1  0
 18 19  1  0
 20 21  1  0
 21 22  1  0
 22 23  1  0
 22 35  1  0
 23 24  2  0
 23 34  1  0
 24 25  1  0
 25 26  2  0
 26 27  1  0
 26 33  1  0
 27 28  1  0
 27 31  1  0
 27 32  1  0
 28 29  2  0
 28 30  1  0
 31 32  1  0
 33 34  2  0
 35 36  1  0
  1 37  1  0
  1 38  1  0
  1 39  1  0
  2 40  1  0
  3 41  1  0
  3 42  1  0
  3 43  1  0
  5 44  1  0
  6 45  1  0
  7 46  1  0
  8 47  1  0
 13 48  1  0
 16 49  1  0
 17 50  1  0
 19 51  1  0
 19 52  1  0
 19 53  1  0
 20 54  1  0
 20 55  1  0
 21 56  1  0
 21 57  1  0
 24 58  1  0
 25 59  1  0
 30 60  1  0
 31 61  1  0
 31 62  1  0
 32 63  1  0
 32 64  1  0
 33 65  1  0
 34 66  1  0
 35 67  1  0
 35 68  1  0
 36 69  1  0
 36 70  1  0
M  END
> <Name>
Molecule

> <AbsoluteEnergy>
51.8549

> <Clean Energy>
216.53

> <ConfNumber>
15

> <MOL_NUMBER>
7

> <RelativeEnergy>
8.08194

> <POSE_NUMBER>
40

> <LibDockScore>
117.59

> <HotSpots>
-3.53,-22.32,46.59,A,20,5
4.67,-22.92,49.98,A,40,17
-6.53,-30.72,51.78,A,56,31

$$$$
Molecule
  SciTegic05072616053D

 70 74  0  0  0  0            999 V2000
   -3.8248  -21.6197   50.6383 C   0  0  0  1  0  0
   -4.9038  -22.5985   50.1356 C   0  0  0  1  0  0
   -6.2987  -21.9460   50.1516 C   0  0  0  1  0  0
   -4.5606  -23.1674   48.7766 C   0  0  0  1  0  0
   -4.8115  -22.3341   47.6611 C   0  0  0  1  0  0
   -4.5627  -22.7731   46.3574 C   0  0  0  1  0  0
   -4.0578  -24.0582   46.1443 C   0  0  0  1  0  0
   -3.7904  -24.8973   47.2336 C   0  0  0  1  0  0
   -4.0060  -24.4763   48.5702 C   0  0  0  1  0  0
   -3.6433  -25.4267   49.7220 C   0  0  0  1  0  0
   -2.4358  -24.9011   50.5155 C   0  0  0  1  0  0
   -2.6480  -24.3714   51.5766 O   0  0  0  1  0  0
   -1.1328  -25.0048   50.0482 N   0  0  0  1  0  0
    0.1162  -24.8594   50.8576 C   0  0  0  1  0  0
    1.3360  -24.6537   50.2616 N   0  0  0  1  0  0
    2.2489  -24.5167   51.2441 C   0  0  0  1  0  0
    1.5996  -24.6387   52.4614 C   0  0  0  1  0  0
    0.2939  -24.9057   52.2332 N   0  0  0  1  0  0
   -0.6698  -25.2193   53.3086 C   0  0  0  1  0  0
   -3.2881  -26.8776   49.2549 C   0  0  0  1  0  0
   -2.9524  -27.8629   50.3961 C   0  0  0  1  0  0
   -3.9096  -27.8238   51.5459 N   0  0  0  1  0  0
   -4.0429  -28.9079   52.4038 C   0  0  0  1  0  0
   -4.5106  -30.1665   51.9618 C   0  0  0  1  0  0
   -4.6940  -31.2241   52.8755 C   0  0  0  1  0  0
   -4.3860  -31.0431   54.2386 C   0  0  0  1  0  0
   -4.5799  -32.1903   55.2179 C   0  0  0  1  0  0
   -5.9662  -32.2904   55.8695 C   0  0  0  1  0  0
   -6.8467  -31.5031   55.5949 O   0  0  0  1  0  0
   -6.1902  -33.2718   56.7527 O   0  0  0  1  0  0
   -3.8867  -33.5008   54.8665 C   0  0  0  1  0  0
   -3.3838  -32.6816   56.0303 C   0  0  0  1  0  0
   -3.8927  -29.7979   54.6765 C   0  0  0  1  0  0
   -3.7075  -28.7479   53.7627 C   0  0  0  1  0  0
   -4.7063  -26.5888   51.8200 C   0  0  0  1  0  0
   -4.9050  -25.6533   50.6052 C   0  0  0  1  0  0
   -4.0735  -21.3162   51.6552 H   0  0
   -3.8230  -20.7398   49.9950 H   0  0
   -2.8447  -22.0963   50.6208 H   0  0
   -4.9300  -23.4399   50.8280 H   0  0
   -6.2802  -21.0639   49.5116 H   0  0
   -6.5308  -21.6403   51.1718 H   0  0
   -7.0495  -22.6505   49.7937 H   0  0
   -5.2063  -21.3308   47.8212 H   0  0
   -4.7617  -22.1158   45.5110 H   0  0
   -3.8717  -24.4084   45.1290 H   0  0
   -3.4064  -25.9005   47.0488 H   0  0
   -1.0099  -25.2091   49.0051 H   0  0
    3.3154  -24.3401   51.1044 H   0  0
    2.0646  -24.5363   53.4419 H   0  0
   -1.0470  -26.1833   52.9673 H   0  0
   -1.4672  -24.5129   53.0779 H   0  0
   -0.3231  -25.2004   54.3418 H   0  0
   -2.4370  -26.8287   48.5757 H   0  0
   -4.1275  -27.2770   48.6857 H   0  0
   -1.9515  -27.6436   50.7678 H   0  0
   -2.9333  -28.8751   49.9921 H   0  0
   -4.7313  -30.3205   50.9055 H   0  0
   -5.0749  -32.1840   52.5269 H   0  0
   -5.4542  -33.1519   57.4919 H   0  0
   -3.2464  -33.3921   53.9911 H   0  0
   -4.4668  -34.3611   55.2004 H   0  0
   -3.6966  -33.1040   56.9852 H   0  0
   -2.4769  -32.1334   55.7752 H   0  0
   -3.6537  -29.6490   55.7295 H   0  0
   -3.2996  -27.7982   54.1087 H   0  0
   -5.6857  -26.8837   52.1966 H   0  0
   -4.2161  -26.0274   52.6154 H   0  0
   -5.2551  -24.6862   50.9661 H   0  0
   -5.6994  -26.0612   49.9802 H   0  0
  1  2  1  0
  2  3  1  0
  2  4  1  0
  4  5  2  0
  4  9  1  0
  5  6  1  0
  6  7  2  0
  7  8  1  0
  8  9  2  0
  9 10  1  0
 10 11  1  0
 10 20  1  0
 10 36  1  0
 11 12  2  0
 11 13  1  0
 13 14  1  0
 14 15  2  0
 14 18  1  0
 15 16  1  0
 16 17  2  0
 17 18  1  0
 18 19  1  0
 20 21  1  0
 21 22  1  0
 22 23  1  0
 22 35  1  0
 23 24  2  0
 23 34  1  0
 24 25  1  0
 25 26  2  0
 26 27  1  0
 26 33  1  0
 27 28  1  0
 27 31  1  0
 27 32  1  0
 28 29  2  0
 28 30  1  0
 31 32  1  0
 33 34  2  0
 35 36  1  0
  1 37  1  0
  1 38  1  0
  1 39  1  0
  2 40  1  0
  3 41  1  0
  3 42  1  0
  3 43  1  0
  5 44  1  0
  6 45  1  0
  7 46  1  0
  8 47  1  0
 13 48  1  0
 16 49  1  0
 17 50  1  0
 19 51  1  0
 19 52  1  0
 19 53  1  0
 20 54  1  0
 20 55  1  0
 21 56  1  0
 21 57  1  0
 24 58  1  0
 25 59  1  0
 30 60  1  0
 31 61  1  0
 31 62  1  0
 32 63  1  0
 32 64  1  0
 33 65  1  0
 34 66  1  0
 35 67  1  0
 35 68  1  0
 36 69  1  0
 36 70  1  0
M  END
> <Name>
Molecule

> <AbsoluteEnergy>
54.2715

> <Clean Energy>
216.53

> <ConfNumber>
27

> <MOL_NUMBER>
7

> <RelativeEnergy>
10.4985

> <POSE_NUMBER>
41

> <LibDockScore>
117.3695

> <HotSpots>
-3.53,-22.32,46.59,A,20,6
3.07,-24.52,50.38,A,43,16
-6.53,-33.12,56.38,P,68,30

$$$$
Molecule
  SciTegic05072616053D

 70 74  0  0  0  0            999 V2000
    0.3805  -23.4638   53.0960 C   0  0  0  1  0  0
    1.0602  -24.7338   52.5460 C   0  0  0  1  0  0
    2.4009  -24.9559   53.2851 C   0  0  0  1  0  0
    1.1483  -24.6840   51.0313 C   0  0  0  1  0  0
    2.4088  -24.3183   50.4948 C   0  0  0  1  0  0
    2.6316  -24.2196   49.1199 C   0  0  0  1  0  0
    1.5863  -24.4724   48.2357 C   0  0  0  1  0  0
    0.3294  -24.8240   48.7321 C   0  0  0  1  0  0
    0.0595  -24.9568   50.1222 C   0  0  0  1  0  0
   -1.3953  -25.3583   50.4577 C   0  0  0  1  0  0
   -2.3351  -24.3669   49.7543 C   0  0  0  1  0  0
   -2.6240  -23.3464   50.3297 O   0  0  0  1  0  0
   -2.8452  -24.6257   48.4968 N   0  0  0  1  0  0
   -3.8094  -23.8118   47.7068 C   0  0  0  1  0  0
   -3.7800  -23.8381   46.3397 N   0  0  0  1  0  0
   -4.7392  -23.0059   45.8961 C   0  0  0  1  0  0
   -5.3882  -22.4710   46.9962 C   0  0  0  1  0  0
   -4.8248  -22.9696   48.1204 N   0  0  0  1  0  0
   -5.2843  -22.6383   49.4822 C   0  0  0  1  0  0
   -1.6359  -26.8580   50.0770 C   0  0  0  1  0  0
   -3.0736  -27.3822   50.2453 C   0  0  0  1  0  0
   -3.7723  -26.9505   51.4947 N   0  0  0  1  0  0
   -4.9071  -27.6235   51.9585 C   0  0  0  1  0  0
   -4.9625  -29.0369   52.0501 C   0  0  0  1  0  0
   -6.1362  -29.6851   52.4720 C   0  0  0  1  0  0
   -7.2746  -28.9342   52.8111 C   0  0  0  1  0  0
   -8.5567  -29.6355   53.2035 C   0  0  0  1  0  0
   -9.3615  -30.1406   52.0042 C   0  0  0  1  0  0
   -8.7931  -30.4110   50.9685 O   0  0  0  1  0  0
  -10.6827  -30.2739   52.1228 O   0  0  0  1  0  0
   -9.3093  -29.1349   54.4285 C   0  0  0  1  0  0
   -8.5852  -30.4599   54.4829 C   0  0  0  1  0  0
   -7.2212  -27.5312   52.7663 C   0  0  0  1  0  0
   -6.0504  -26.8840   52.3433 C   0  0  0  1  0  0
   -3.2866  -25.7306   52.2067 C   0  0  0  1  0  0
   -1.8120  -25.3743   51.9548 C   0  0  0  1  0  0
    1.0294  -22.6028   52.9360 H   0  0
    0.1908  -23.5829   54.1627 H   0  0
   -0.5646  -23.3049   52.5768 H   0  0
    0.4588  -25.6199   52.7490 H   0  0
    2.2148  -25.0777   54.3522 H   0  0
    3.0535  -24.0976   53.1254 H   0  0
    2.8837  -25.8533   52.8982 H   0  0
    3.2312  -24.1072   51.1783 H   0  0
    3.6167  -23.9466   48.7416 H   0  0
    1.7484  -24.3962   47.1605 H   0  0
   -0.4794  -25.0044   48.0240 H   0  0
   -2.5036  -25.5264   48.0310 H   0  0
   -4.9662  -22.7901   44.8521 H   0  0
   -6.2172  -21.7641   46.9619 H   0  0
   -4.3491  -22.3176   49.9411 H   0  0
   -5.4644  -23.6349   49.8853 H   0  0
   -6.1140  -21.9406   49.5954 H   0  0
   -1.3363  -27.0034   49.0391 H   0  0
   -0.9714  -27.4789   50.6778 H   0  0
   -3.6649  -27.0581   49.3889 H   0  0
   -3.0532  -28.4717   50.2197 H   0  0
   -4.0845  -29.6282   51.7903 H   0  0
   -6.1634  -30.7729   52.5363 H   0  0
  -11.0282  -29.3259   52.4132 H   0  0
  -10.3855  -29.2690   54.3192 H   0  0
   -8.7547  -28.3519   54.9456 H   0  0
   -7.6455  -30.3824   55.0297 H   0  0
   -9.2758  -31.2993   54.4018 H   0  0
   -8.0911  -26.9441   53.0608 H   0  0
   -6.0211  -25.7949   52.3106 H   0  0
   -3.4332  -25.8704   53.2777 H   0  0
   -3.9055  -24.8844   51.9085 H   0  0
   -1.6121  -24.3931   52.3853 H   0  0
   -1.1846  -26.0907   52.4851 H   0  0
  1  2  1  0
  2  3  1  0
  2  4  1  0
  4  5  2  0
  4  9  1  0
  5  6  1  0
  6  7  2  0
  7  8  1  0
  8  9  2  0
  9 10  1  0
 10 11  1  0
 10 20  1  0
 10 36  1  0
 11 12  2  0
 11 13  1  0
 13 14  1  0
 14 15  2  0
 14 18  1  0
 15 16  1  0
 16 17  2  0
 17 18  1  0
 18 19  1  0
 20 21  1  0
 21 22  1  0
 22 23  1  0
 22 35  1  0
 23 24  2  0
 23 34  1  0
 24 25  1  0
 25 26  2  0
 26 27  1  0
 26 33  1  0
 27 28  1  0
 27 31  1  0
 27 32  1  0
 28 29  2  0
 28 30  1  0
 31 32  1  0
 33 34  2  0
 35 36  1  0
  1 37  1  0
  1 38  1  0
  1 39  1  0
  2 40  1  0
  3 41  1  0
  3 42  1  0
  3 43  1  0
  5 44  1  0
  6 45  1  0
  7 46  1  0
  8 47  1  0
 13 48  1  0
 16 49  1  0
 17 50  1  0
 19 51  1  0
 19 52  1  0
 19 53  1  0
 20 54  1  0
 20 55  1  0
 21 56  1  0
 21 57  1  0
 24 58  1  0
 25 59  1  0
 30 60  1  0
 31 61  1  0
 31 62  1  0
 32 63  1  0
 32 64  1  0
 33 65  1  0
 34 66  1  0
 35 67  1  0
 35 68  1  0
 36 69  1  0
 36 70  1  0
M  END
> <Name>
Molecule

> <AbsoluteEnergy>
61.1221

> <Clean Energy>
216.53

> <ConfNumber>
67

> <MOL_NUMBER>
7

> <RelativeEnergy>
17.3491

> <POSE_NUMBER>
42

> <LibDockScore>
117.3528

> <HotSpots>
1.67,-24.32,50.98,A,50,5
-5.13,-22.92,46.19,A,18,16
-7.93,-28.32,52.38,A,59,33

$$$$
Molecule
  SciTegic05072616053D

 70 74  0  0  0  0            999 V2000
   -0.6752  -25.2182   47.0281 C   0  0  0  1  0  0
   -1.0162  -24.3469   48.2509 C   0  0  0  1  0  0
   -1.5370  -22.9587   47.8351 C   0  0  0  1  0  0
    0.1389  -24.2534   49.2263 C   0  0  0  1  0  0
    1.3172  -23.6377   48.7532 C   0  0  0  1  0  0
    2.4431  -23.4998   49.5717 C   0  0  0  1  0  0
    2.4076  -23.9757   50.8847 C   0  0  0  1  0  0
    1.2467  -24.5900   51.3798 C   0  0  0  1  0  0
    0.0883  -24.7474   50.5715 C   0  0  0  1  0  0
   -1.1774  -25.4214   51.1250 C   0  0  0  1  0  0
   -2.3321  -24.4008   51.0682 C   0  0  0  1  0  0
   -2.0801  -23.2194   51.1629 O   0  0  0  1  0  0
   -3.6437  -24.7963   50.8912 N   0  0  0  1  0  0
   -4.7736  -23.8823   50.5960 C   0  0  0  1  0  0
   -4.6838  -22.6032   50.1143 N   0  0  0  1  0  0
   -5.9443  -22.1512   49.9630 C   0  0  0  1  0  0
   -6.8164  -23.1552   50.3631 C   0  0  0  1  0  0
   -6.0906  -24.2196   50.7649 N   0  0  0  1  0  0
   -6.6269  -25.4915   51.2851 C   0  0  0  1  0  0
   -1.0829  -25.8174   52.6401 C   0  0  0  1  0  0
   -2.3136  -26.5991   53.1739 C   0  0  0  1  0  0
   -2.7727  -27.6353   52.2037 N   0  0  0  1  0  0
   -4.0593  -28.1759   52.2386 C   0  0  0  1  0  0
   -4.3799  -29.3274   51.4826 C   0  0  0  1  0  0
   -5.6745  -29.8691   51.5054 C   0  0  0  1  0  0
   -6.6851  -29.2658   52.2728 C   0  0  0  1  0  0
   -8.0869  -29.8471   52.2579 C   0  0  0  1  0  0
   -9.0329  -29.1601   51.2657 C   0  0  0  1  0  0
   -8.8256  -28.0067   50.9566 O   0  0  0  1  0  0
  -10.0607  -29.8541   50.7623 O   0  0  0  1  0  0
   -8.2366  -31.3512   52.4372 C   0  0  0  1  0  0
   -8.6736  -30.4194   53.5413 C   0  0  0  1  0  0
   -6.3800  -28.1224   53.0348 C   0  0  0  1  0  0
   -5.0803  -27.5819   53.0168 C   0  0  0  1  0  0
   -1.7690  -27.9943   51.1674 C   0  0  0  1  0  0
   -1.4109  -26.7605   50.3148 C   0  0  0  1  0  0
    0.0845  -24.7048   46.4387 H   0  0
   -1.5746  -25.3320   46.4229 H   0  0
   -0.3090  -26.1948   47.3448 H   0  0
   -1.8282  -24.8465   48.7793 H   0  0
   -2.4286  -23.0930   47.2226 H   0  0
   -0.7695  -22.4658   47.2384 H   0  0
   -1.7719  -22.3594   48.7147 H   0  0
    1.3506  -23.2624   47.7304 H   0  0
    3.3445  -23.0230   49.1866 H   0  0
    3.2828  -23.8698   51.5257 H   0  0
    1.2333  -24.9544   52.4070 H   0  0
   -3.8608  -25.8408   50.9733 H   0  0
   -6.2300  -21.1674   49.5908 H   0  0
   -7.9046  -23.0938   50.3541 H   0  0
   -6.1109  -25.5808   52.2410 H   0  0
   -6.1533  -26.2221   50.6293 H   0  0
   -7.7109  -25.5846   51.3507 H   0  0
   -0.9596  -24.9116   53.2337 H   0  0
   -0.1906  -26.4254   52.7891 H   0  0
   -2.0502  -27.0830   54.1144 H   0  0
   -3.1290  -25.9005   53.3617 H   0  0
   -3.6102  -29.8012   50.8733 H   0  0
   -5.8974  -30.7637   50.9239 H   0  0
  -10.5997  -30.1895   51.5986 H   0  0
   -7.2811  -31.8240   52.6643 H   0  0
   -9.0875  -31.7375   51.8761 H   0  0
   -9.7576  -30.3091   53.5693 H   0  0
   -7.9506  -30.3943   54.3566 H   0  0
   -7.1541  -27.6530   53.6420 H   0  0
   -4.8580  -26.6948   53.6098 H   0  0
   -2.1774  -28.7720   50.5221 H   0  0
   -0.8685  -28.3711   51.6524 H   0  0
   -0.5105  -26.9845   49.7428 H   0  0
   -2.2096  -26.5956   49.5916 H   0  0
  1  2  1  0
  2  3  1  0
  2  4  1  0
  4  5  2  0
  4  9  1  0
  5  6  1  0
  6  7  2  0
  7  8  1  0
  8  9  2  0
  9 10  1  0
 10 11  1  0
 10 20  1  0
 10 36  1  0
 11 12  2  0
 11 13  1  0
 13 14  1  0
 14 15  2  0
 14 18  1  0
 15 16  1  0
 16 17  2  0
 17 18  1  0
 18 19  1  0
 20 21  1  0
 21 22  1  0
 22 23  1  0
 22 35  1  0
 23 24  2  0
 23 34  1  0
 24 25  1  0
 25 26  2  0
 26 27  1  0
 26 33  1  0
 27 28  1  0
 27 31  1  0
 27 32  1  0
 28 29  2  0
 28 30  1  0
 31 32  1  0
 33 34  2  0
 35 36  1  0
  1 37  1  0
  1 38  1  0
  1 39  1  0
  2 40  1  0
  3 41  1  0
  3 42  1  0
  3 43  1  0
  5 44  1  0
  6 45  1  0
  7 46  1  0
  8 47  1  0
 13 48  1  0
 16 49  1  0
 17 50  1  0
 19 51  1  0
 19 52  1  0
 19 53  1  0
 20 54  1  0
 20 55  1  0
 21 56  1  0
 21 57  1  0
 24 58  1  0
 25 59  1  0
 30 60  1  0
 31 61  1  0
 31 62  1  0
 32 63  1  0
 32 64  1  0
 33 65  1  0
 34 66  1  0
 35 67  1  0
 35 68  1  0
 36 69  1  0
 36 70  1  0
M  END
> <Name>
Molecule

> <AbsoluteEnergy>
47.4462

> <Clean Energy>
216.53

> <ConfNumber>
7

> <MOL_NUMBER>
7

> <RelativeEnergy>
3.67316

> <POSE_NUMBER>
43

> <LibDockScore>
117.0615

> <HotSpots>
0.87,-24.32,52.78,A,63,8
-6.13,-22.12,49.98,A,41,16
-8.53,-31.32,51.19,A,51,31

$$$$
Molecule
  SciTegic05072616053D

 70 74  0  0  0  0            999 V2000
   -9.9505  -29.7649   50.7907 C   0  0  0  1  0  0
   -8.8673  -29.4479   51.8423 C   0  0  0  1  0  0
   -8.2571  -28.0489   51.6208 C   0  0  0  1  0  0
   -7.8034  -30.5218   51.9122 C   0  0  0  1  0  0
   -7.7637  -31.3561   50.7674 C   0  0  0  1  0  0
   -6.8261  -32.3809   50.6270 C   0  0  0  1  0  0
   -5.8905  -32.5978   51.6359 C   0  0  0  1  0  0
   -5.9103  -31.7961   52.7818 C   0  0  0  1  0  0
   -6.8621  -30.7580   52.9816 C   0  0  0  1  0  0
   -6.7085  -30.0340   54.3398 C   0  0  0  1  0  0
   -5.2385  -30.1219   54.7843 C   0  0  0  1  0  0
   -4.9486  -30.7120   55.8007 O   0  0  0  1  0  0
   -4.2474  -29.5168   54.0332 N   0  0  0  1  0  0
   -2.9107  -29.1459   54.5620 C   0  0  0  1  0  0
   -2.3665  -29.6201   55.7238 N   0  0  0  1  0  0
   -1.1633  -29.0343   55.8689 C   0  0  0  1  0  0
   -0.9592  -28.1921   54.7853 C   0  0  0  1  0  0
   -2.0380  -28.2628   53.9737 N   0  0  0  1  0  0
   -2.2027  -27.5181   52.7100 C   0  0  0  1  0  0
   -7.6029  -30.7573   55.4264 C   0  0  0  1  0  0
   -9.0799  -30.3248   55.4576 C   0  0  0  1  0  0
   -9.1000  -28.8636   55.6838 N   0  0  0  1  0  0
   -9.5237  -28.2734   56.8670 C   0  0  0  1  0  0
   -9.3535  -26.8841   57.0551 C   0  0  0  1  0  0
   -9.7243  -26.2728   58.2609 C   0  0  0  1  0  0
  -10.2847  -27.0385   59.2981 C   0  0  0  1  0  0
  -10.6686  -26.3799   60.6015 C   0  0  0  1  0  0
  -11.9693  -25.5989   60.5120 C   0  0  0  1  0  0
  -11.9439  -24.4565   60.1131 O   0  0  0  1  0  0
  -13.1042  -26.1936   60.8763 O   0  0  0  1  0  0
   -9.5701  -25.8393   61.5061 C   0  0  0  1  0  0
  -10.3352  -27.0744   61.9130 C   0  0  0  1  0  0
  -10.4818  -28.4186   59.1134 C   0  0  0  1  0  0
  -10.1058  -29.0339   57.9062 C   0  0  0  1  0  0
   -8.5035  -28.1072   54.5654 C   0  0  0  1  0  0
   -7.0113  -28.4978   54.4575 C   0  0  0  1  0  0
   -9.4984  -29.7168   49.8000 H   0  0
  -10.7339  -29.0102   50.8596 H   0  0
  -10.3694  -30.7563   50.9634 H   0  0
   -9.3617  -29.4379   52.8137 H   0  0
   -9.0540  -27.3078   51.6831 H   0  0
   -7.8185  -28.0145   50.6235 H   0  0
   -7.4949  -27.8433   52.3724 H   0  0
   -8.4890  -31.1923   49.9704 H   0  0
   -6.8262  -33.0067   49.7345 H   0  0
   -5.1469  -33.3881   51.5329 H   0  0
   -5.1637  -31.9746   53.5556 H   0  0
   -4.4572  -29.3024   53.0061 H   0  0
   -0.4697  -29.1939   56.6944 H   0  0
   -0.0760  -27.5760   54.6165 H   0  0
   -3.1571  -27.0181   52.8747 H   0  0
   -2.4192  -28.3241   52.0089 H   0  0
   -1.3924  -26.8568   52.4030 H   0  0
   -7.5604  -31.8326   55.2534 H   0  0
   -7.1694  -30.5798   56.4106 H   0  0
   -9.5523  -30.5569   54.5031 H   0  0
   -9.5962  -30.8313   56.2730 H   0  0
   -8.9288  -26.2801   56.2533 H   0  0
   -9.5777  -25.2010   58.3946 H   0  0
  -12.9432  -26.5097   61.8646 H   0  0
   -9.9029  -24.9599   62.0574 H   0  0
   -8.5800  -26.0869   61.1234 H   0  0
   -9.7527  -27.9809   61.7489 H   0  0
  -11.0762  -26.8540   62.6814 H   0  0
  -10.9281  -29.0142   59.9098 H   0  0
  -10.2643  -30.1038   57.7712 H   0  0
   -8.5881  -27.0378   54.7584 H   0  0
   -9.0156  -28.3604   53.6371 H   0  0
   -6.5847  -27.9923   53.5912 H   0  0
   -6.4888  -28.1077   55.3310 H   0  0
  1  2  1  0
  2  3  1  0
  2  4  1  0
  4  5  2  0
  4  9  1  0
  5  6  1  0
  6  7  2  0
  7  8  1  0
  8  9  2  0
  9 10  1  0
 10 11  1  0
 10 20  1  0
 10 36  1  0
 11 12  2  0
 11 13  1  0
 13 14  1  0
 14 15  2  0
 14 18  1  0
 15 16  1  0
 16 17  2  0
 17 18  1  0
 18 19  1  0
 20 21  1  0
 21 22  1  0
 22 23  1  0
 22 35  1  0
 23 24  2  0
 23 34  1  0
 24 25  1  0
 25 26  2  0
 26 27  1  0
 26 33  1  0
 27 28  1  0
 27 31  1  0
 27 32  1  0
 28 29  2  0
 28 30  1  0
 31 32  1  0
 33 34  2  0
 35 36  1  0
  1 37  1  0
  1 38  1  0
  1 39  1  0
  2 40  1  0
  3 41  1  0
  3 42  1  0
  3 43  1  0
  5 44  1  0
  6 45  1  0
  7 46  1  0
  8 47  1  0
 13 48  1  0
 16 49  1  0
 17 50  1  0
 19 51  1  0
 19 52  1  0
 19 53  1  0
 20 54  1  0
 20 55  1  0
 21 56  1  0
 21 57  1  0
 24 58  1  0
 25 59  1  0
 30 60  1  0
 31 61  1  0
 31 62  1  0
 32 63  1  0
 32 64  1  0
 33 65  1  0
 34 66  1  0
 35 67  1  0
 35 68  1  0
 36 69  1  0
 36 70  1  0
M  END
> <Name>
Molecule

> <AbsoluteEnergy>
57.6628

> <Clean Energy>
216.53

> <ConfNumber>
44

> <MOL_NUMBER>
7

> <RelativeEnergy>
13.8898

> <POSE_NUMBER>
44

> <LibDockScore>
116.9292

> <HotSpots>
-9.33,-29.92,51.19,A,52,1
-7.13,-31.92,50.98,A,49,5
-2.13,-28.32,55.19,P,61,15

$$$$
Molecule
  SciTegic05072616053D

 70 74  0  0  0  0            999 V2000
    2.5882  -24.9687   48.9082 C   0  0  0  1  0  0
    1.7251  -23.9607   49.6963 C   0  0  0  1  0  0
    2.6009  -22.8384   50.2853 C   0  0  0  1  0  0
    0.5805  -23.4067   48.8811 C   0  0  0  1  0  0
    0.9228  -22.5914   47.7788 C   0  0  0  1  0  0
   -0.0489  -22.1328   46.8823 C   0  0  0  1  0  0
   -1.3856  -22.4879   47.0715 C   0  0  0  1  0  0
   -1.7493  -23.2577   48.1806 C   0  0  0  1  0  0
   -0.8021  -23.6765   49.1527 C   0  0  0  1  0  0
   -1.3205  -24.4130   50.4025 C   0  0  0  1  0  0
   -2.8370  -24.7271   50.3041 C   0  0  0  1  0  0
   -3.2042  -25.8745   50.2290 O   0  0  0  1  0  0
   -3.7565  -23.6814   50.3052 N   0  0  0  1  0  0
   -5.2425  -23.7040   50.4232 C   0  0  0  1  0  0
   -5.9820  -22.6024   50.0725 N   0  0  0  1  0  0
   -7.2760  -22.8941   50.2929 C   0  0  0  1  0  0
   -7.3493  -24.1910   50.7733 C   0  0  0  1  0  0
   -6.0978  -24.7024   50.8524 N   0  0  0  1  0  0
   -5.8019  -26.0688   51.3201 C   0  0  0  1  0  0
   -0.4670  -25.7254   50.5513 C   0  0  0  1  0  0
   -0.1293  -26.1112   52.0051 C   0  0  0  1  0  0
   -1.3198  -25.8904   52.8609 N   0  0  0  1  0  0
   -1.9919  -26.9612   53.4331 C   0  0  0  1  0  0
   -1.2874  -27.9728   54.1315 C   0  0  0  1  0  0
   -1.9536  -29.1226   54.5882 C   0  0  0  1  0  0
   -3.3315  -29.2741   54.3489 C   0  0  0  1  0  0
   -4.0269  -30.5602   54.7146 C   0  0  0  1  0  0
   -4.1488  -31.4790   53.5078 C   0  0  0  1  0  0
   -3.3406  -32.3649   53.3503 O   0  0  0  1  0  0
   -5.1416  -31.2730   52.6400 O   0  0  0  1  0  0
   -5.1581  -30.5473   55.7305 C   0  0  0  1  0  0
   -3.8290  -31.1619   56.0972 C   0  0  0  1  0  0
   -4.0543  -28.2316   53.7404 C   0  0  0  1  0  0
   -3.3912  -27.0808   53.2936 C   0  0  0  1  0  0
   -1.7736  -24.4661   52.9623 C   0  0  0  1  0  0
   -1.2522  -23.6228   51.7620 C   0  0  0  1  0  0
    3.3306  -25.4007   49.5793 H   0  0
    3.0984  -24.4435   48.1007 H   0  0
    1.9588  -25.7576   48.4963 H   0  0
    1.2681  -24.5069   50.5215 H   0  0
    3.1110  -22.3227   49.4717 H   0  0
    3.3432  -23.2799   50.9502 H   0  0
    1.9816  -22.1329   50.8393 H   0  0
    1.9654  -22.3140   47.6236 H   0  0
    0.2365  -21.5016   46.0407 H   0  0
   -2.1433  -22.1661   46.3570 H   0  0
   -2.7934  -23.5457   48.3032 H   0  0
   -3.3282  -22.7060   50.2054 H   0  0
   -8.1204  -22.2261   50.1230 H   0  0
   -8.2659  -24.7152   51.0439 H   0  0
   -5.0761  -25.8619   52.1066 H   0  0
   -5.2083  -26.4449   50.4868 H   0  0
   -6.6326  -26.7085   51.6182 H   0  0
    0.4641  -25.6036   49.9979 H   0  0
   -1.0090  -26.5502   50.0886 H   0  0
    0.6950  -25.4949   52.3639 H   0  0
    0.1571  -27.1621   52.0454 H   0  0
   -0.2193  -27.8581   54.3161 H   0  0
   -1.4042  -29.8950   55.1264 H   0  0
   -5.0280  -30.2784   52.3232 H   0  0
   -5.9054  -31.3087   55.5071 H   0  0
   -5.2824  -29.5610   56.1777 H   0  0
   -3.2451  -30.5034   56.7404 H   0  0
   -3.8676  -32.2508   56.0683 H   0  0
   -5.1336  -28.3194   53.6161 H   0  0
   -3.9603  -26.2721   52.8350 H   0  0
   -1.4014  -24.0352   53.8918 H   0  0
   -2.8631  -24.4367   52.9751 H   0  0
   -1.8507  -22.7156   51.6786 H   0  0
   -0.2194  -23.3321   51.9538 H   0  0
  1  2  1  0
  2  3  1  0
  2  4  1  0
  4  5  2  0
  4  9  1  0
  5  6  1  0
  6  7  2  0
  7  8  1  0
  8  9  2  0
  9 10  1  0
 10 11  1  0
 10 20  1  0
 10 36  1  0
 11 12  2  0
 11 13  1  0
 13 14  1  0
 14 15  2  0
 14 18  1  0
 15 16  1  0
 16 17  2  0
 17 18  1  0
 18 19  1  0
 20 21  1  0
 21 22  1  0
 22 23  1  0
 22 35  1  0
 23 24  2  0
 23 34  1  0
 24 25  1  0
 25 26  2  0
 26 27  1  0
 26 33  1  0
 27 28  1  0
 27 31  1  0
 27 32  1  0
 28 29  2  0
 28 30  1  0
 31 32  1  0
 33 34  2  0
 35 36  1  0
  1 37  1  0
  1 38  1  0
  1 39  1  0
  2 40  1  0
  3 41  1  0
  3 42  1  0
  3 43  1  0
  5 44  1  0
  6 45  1  0
  7 46  1  0
  8 47  1  0
 13 48  1  0
 16 49  1  0
 17 50  1  0
 19 51  1  0
 19 52  1  0
 19 53  1  0
 20 54  1  0
 20 55  1  0
 21 56  1  0
 21 57  1  0
 24 58  1  0
 25 59  1  0
 30 60  1  0
 31 61  1  0
 31 62  1  0
 32 63  1  0
 32 64  1  0
 33 65  1  0
 34 66  1  0
 35 67  1  0
 35 68  1  0
 36 69  1  0
 36 70  1  0
M  END
> <Name>
Molecule

> <AbsoluteEnergy>
58.5109

> <Clean Energy>
216.53

> <ConfNumber>
53

> <MOL_NUMBER>
7

> <RelativeEnergy>
14.7379

> <POSE_NUMBER>
45

> <LibDockScore>
116.8448

> <HotSpots>
2.67,-23.92,48.98,A,32,1
-7.33,-24.12,50.38,A,44,17
-4.13,-31.12,56.59,A,79,32

$$$$
Molecule
  SciTegic05072616053D

 70 74  0  0  0  0            999 V2000
    2.5883  -25.3651   53.2200 C   0  0  0  1  0  0
    1.2900  -24.6574   52.7778 C   0  0  0  1  0  0
    1.0945  -23.3426   53.5566 C   0  0  0  1  0  0
    1.2220  -24.4379   51.2848 C   0  0  0  1  0  0
    2.3907  -23.9445   50.6622 C   0  0  0  1  0  0
    2.4806  -23.8270   49.2707 C   0  0  0  1  0  0
    1.3993  -24.2077   48.4742 C   0  0  0  1  0  0
    0.2190  -24.6571   49.0741 C   0  0  0  1  0  0
    0.0643  -24.7170   50.4849 C   0  0  0  1  0  0
   -1.3156  -25.1057   51.0488 C   0  0  0  1  0  0
   -2.4351  -24.9813   49.9814 C   0  0  0  1  0  0
   -3.2265  -25.8818   49.8401 O   0  0  0  1  0  0
   -2.5144  -23.8314   49.2001 N   0  0  0  1  0  0
   -3.5738  -23.3800   48.2533 C   0  0  0  1  0  0
   -3.2379  -22.6882   47.1166 N   0  0  0  1  0  0
   -4.3779  -22.3972   46.4656 C   0  0  0  1  0  0
   -5.4343  -22.9204   47.1924 C   0  0  0  1  0  0
   -4.9474  -23.5347   48.2967 N   0  0  0  1  0  0
   -5.7949  -24.2091   49.2969 C   0  0  0  1  0  0
   -1.1943  -26.5772   51.5902 C   0  0  0  1  0  0
   -1.9832  -26.8525   52.8857 C   0  0  0  1  0  0
   -3.3074  -26.1906   52.8043 N   0  0  0  1  0  0
   -4.4723  -26.9402   52.7215 C   0  0  0  1  0  0
   -4.4850  -28.3080   53.0911 C   0  0  0  1  0  0
   -5.6282  -29.0962   52.8755 C   0  0  0  1  0  0
   -6.7703  -28.5251   52.2854 C   0  0  0  1  0  0
   -7.9509  -29.3907   51.9272 C   0  0  0  1  0  0
   -7.5188  -30.8266   51.6691 C   0  0  0  1  0  0
   -8.2023  -31.7365   52.0785 O   0  0  0  1  0  0
   -6.3813  -31.0471   51.0066 O   0  0  0  1  0  0
   -9.0861  -28.8165   51.0943 C   0  0  0  1  0  0
   -9.3084  -29.1186   52.5565 C   0  0  0  1  0  0
   -6.7969  -27.1469   52.0036 C   0  0  0  1  0  0
   -5.6599  -26.3592   52.2277 C   0  0  0  1  0  0
   -3.2658  -24.6955   52.7187 C   0  0  0  1  0  0
   -1.8827  -24.1997   52.2041 C   0  0  0  1  0  0
    2.5295  -25.5795   54.2871 H   0  0
    3.4340  -24.7029   53.0343 H   0  0
    2.7163  -26.2933   52.6630 H   0  0
    0.4631  -25.3248   53.0204 H   0  0
    1.9469  -22.6895   53.3694 H   0  0
    1.0424  -23.5661   54.6222 H   0  0
    0.1754  -22.8517   53.2365 H   0  0
    3.2398  -23.6493   51.2787 H   0  0
    3.3902  -23.4402   48.8112 H   0  0
    1.4749  -24.1548   47.3881 H   0  0
   -0.6090  -24.9716   48.4388 H   0  0
   -1.6822  -23.1655   49.2943 H   0  0
   -4.4568  -21.8455   45.5288 H   0  0
   -6.4872  -22.8493   46.9197 H   0  0
   -5.4653  -23.7136   50.2101 H   0  0
   -5.3265  -25.1928   49.3304 H   0  0
   -6.8740  -24.2191   49.1434 H   0  0
   -0.1424  -26.8003   51.7687 H   0  0
   -1.5409  -27.2642   50.8182 H   0  0
   -1.4320  -26.4578   53.7392 H   0  0
   -2.1211  -27.9270   53.0062 H   0  0
   -3.6003  -28.7527   53.5467 H   0  0
   -5.6300  -30.1471   53.1647 H   0  0
   -5.6413  -30.5433   51.5553 H   0  0
   -9.5361  -29.5751   50.4539 H   0  0
   -8.9532  -27.7488   50.9197 H   0  0
   -9.2946  -28.2118   53.1612 H   0  0
   -9.8760  -30.0387   52.6955 H   0  0
   -7.7049  -26.6904   51.6097 H   0  0
   -5.6929  -25.2899   52.0191 H   0  0
   -3.4534  -24.2732   53.7059 H   0  0
   -4.0455  -24.3532   52.0383 H   0  0
   -1.9849  -23.1776   51.8394 H   0  0
   -1.1755  -24.1954   53.0335 H   0  0
  1  2  1  0
  2  3  1  0
  2  4  1  0
  4  5  2  0
  4  9  1  0
  5  6  1  0
  6  7  2  0
  7  8  1  0
  8  9  2  0
  9 10  1  0
 10 11  1  0
 10 20  1  0
 10 36  1  0
 11 12  2  0
 11 13  1  0
 13 14  1  0
 14 15  2  0
 14 18  1  0
 15 16  1  0
 16 17  2  0
 17 18  1  0
 18 19  1  0
 20 21  1  0
 21 22  1  0
 22 23  1  0
 22 35  1  0
 23 24  2  0
 23 34  1  0
 24 25  1  0
 25 26  2  0
 26 27  1  0
 26 33  1  0
 27 28  1  0
 27 31  1  0
 27 32  1  0
 28 29  2  0
 28 30  1  0
 31 32  1  0
 33 34  2  0
 35 36  1  0
  1 37  1  0
  1 38  1  0
  1 39  1  0
  2 40  1  0
  3 41  1  0
  3 42  1  0
  3 43  1  0
  5 44  1  0
  6 45  1  0
  7 46  1  0
  8 47  1  0
 13 48  1  0
 16 49  1  0
 17 50  1  0
 19 51  1  0
 19 52  1  0
 19 53  1  0
 20 54  1  0
 20 55  1  0
 21 56  1  0
 21 57  1  0
 24 58  1  0
 25 59  1  0
 30 60  1  0
 31 61  1  0
 31 62  1  0
 32 63  1  0
 32 64  1  0
 33 65  1  0
 34 66  1  0
 35 67  1  0
 35 68  1  0
 36 69  1  0
 36 70  1  0
M  END
> <Name>
Molecule

> <AbsoluteEnergy>
58.5109

> <Clean Energy>
216.53

> <ConfNumber>
53

> <MOL_NUMBER>
7

> <RelativeEnergy>
14.7379

> <POSE_NUMBER>
46

> <LibDockScore>
114.1262

> <HotSpots>
0.47,-23.32,53.78,A,67,3
1.67,-24.32,50.98,A,50,5
-9.53,-30.12,52.78,A,62,32

$$$$
Molecule
  SciTegic05072616053D

 70 74  0  0  0  0            999 V2000
    2.4761  -25.2902   48.9694 C   0  0  0  1  0  0
    1.3097  -24.6015   49.7048 C   0  0  0  1  0  0
    1.8220  -23.6004   50.7585 C   0  0  0  1  0  0
    0.3304  -23.9454   48.7545 C   0  0  0  1  0  0
    0.8895  -23.0690   47.7958 C   0  0  0  1  0  0
    0.0966  -22.4389   46.8319 C   0  0  0  1  0  0
   -1.2762  -22.6830   46.8021 C   0  0  0  1  0  0
   -1.8540  -23.5373   47.7474 C   0  0  0  1  0  0
   -1.0894  -24.1592   48.7720 C   0  0  0  1  0  0
   -1.8120  -25.0210   49.8224 C   0  0  0  1  0  0
   -3.3402  -24.7573   49.8756 C   0  0  0  1  0  0
   -4.1086  -25.6808   49.7678 O   0  0  0  1  0  0
   -3.8292  -23.4778   50.0778 N   0  0  0  1  0  0
   -5.2423  -23.0333   50.2236 C   0  0  0  1  0  0
   -5.5675  -21.7206   50.0201 N   0  0  0  1  0  0
   -6.8777  -21.5799   50.2853 C   0  0  0  1  0  0
   -7.3825  -22.8225   50.6282 C   0  0  0  1  0  0
   -6.3877  -23.7357   50.5560 N   0  0  0  1  0  0
   -6.5944  -25.1777   50.7893 C   0  0  0  1  0  0
   -1.3118  -24.7564   51.2944 C   0  0  0  1  0  0
   -2.0332  -25.6140   52.3670 C   0  0  0  1  0  0
   -2.5606  -26.8828   51.7831 N   0  0  0  1  0  0
   -3.8045  -27.4132   52.1116 C   0  0  0  1  0  0
   -4.8795  -26.5575   52.4433 C   0  0  0  1  0  0
   -6.1583  -27.0713   52.6872 C   0  0  0  1  0  0
   -6.3858  -28.4559   52.6241 C   0  0  0  1  0  0
   -7.7796  -28.9936   52.8380 C   0  0  0  1  0  0
   -8.2754  -28.8345   54.2680 C   0  0  0  1  0  0
   -8.2508  -29.7868   55.0126 O   0  0  0  1  0  0
   -8.7301  -27.6469   54.6667 O   0  0  0  1  0  0
   -8.7906  -28.8148   51.7167 C   0  0  0  1  0  0
   -8.2494  -30.1885   52.0240 C   0  0  0  1  0  0
   -5.3147  -29.3248   52.3501 C   0  0  0  1  0  0
   -4.0321  -28.8085   52.0957 C   0  0  0  1  0  0
   -1.6907  -27.4823   50.7331 C   0  0  0  1  0  0
   -1.6068  -26.5484   49.4979 C   0  0  0  1  0  0
    3.0896  -25.8142   49.7023 H   0  0
    3.0811  -24.5256   48.4822 H   0  0
    2.0953  -25.9937   48.2290 H   0  0
    0.7628  -25.3878   50.2252 H   0  0
    2.4320  -22.8486   50.2577 H   0  0
    2.4405  -24.1372   51.4778 H   0  0
    0.9844  -23.1237   51.2677 H   0  0
    1.9630  -22.8804   47.8086 H   0  0
    0.5487  -21.7609   46.1080 H   0  0
   -1.8983  -22.2087   46.0431 H   0  0
   -2.9252  -23.7324   47.6967 H   0  0
   -3.0921  -22.7045   50.1373 H   0  0
   -7.4439  -20.6497   50.2385 H   0  0
   -8.4144  -23.0310   50.9106 H   0  0
   -5.8309  -25.3693   51.5432 H   0  0
   -6.1815  -25.5900   49.8686 H   0  0
   -7.5938  -25.5298   51.0450 H   0  0
   -1.4563  -23.7026   51.5326 H   0  0
   -0.2419  -24.9587   51.3447 H   0  0
   -1.3323  -25.8525   53.1670 H   0  0
   -2.8608  -25.0429   52.7877 H   0  0
   -4.7102  -25.4828   52.5101 H   0  0
   -6.9794  -26.3956   52.9266 H   0  0
   -9.4985  -27.4080   53.9922 H   0  0
   -8.3287  -28.3904   50.8253 H   0  0
   -9.8001  -28.6834   52.1062 H   0  0
   -8.9704  -30.7907   52.5768 H   0  0
   -7.4980  -30.4971   51.2972 H   0  0
   -5.4794  -30.4022   52.3349 H   0  0
   -3.2071  -29.4889   51.8847 H   0  0
   -2.1017  -28.4451   50.4294 H   0  0
   -0.6902  -27.6353   51.1378 H   0  0
   -0.6332  -26.6802   49.0258 H   0  0
   -2.3606  -26.8578   48.7739 H   0  0
  1  2  1  0
  2  3  1  0
  2  4  1  0
  4  5  2  0
  4  9  1  0
  5  6  1  0
  6  7  2  0
  7  8  1  0
  8  9  2  0
  9 10  1  0
 10 11  1  0
 10 20  1  0
 10 36  1  0
 11 12  2  0
 11 13  1  0
 13 14  1  0
 14 15  2  0
 14 18  1  0
 15 16  1  0
 16 17  2  0
 17 18  1  0
 18 19  1  0
 20 21  1  0
 21 22  1  0
 22 23  1  0
 22 35  1  0
 23 24  2  0
 23 34  1  0
 24 25  1  0
 25 26  2  0
 26 27  1  0
 26 33  1  0
 27 28  1  0
 27 31  1  0
 27 32  1  0
 28 29  2  0
 28 30  1  0
 31 32  1  0
 33 34  2  0
 35 36  1  0
  1 37  1  0
  1 38  1  0
  1 39  1  0
  2 40  1  0
  3 41  1  0
  3 42  1  0
  3 43  1  0
  5 44  1  0
  6 45  1  0
  7 46  1  0
  8 47  1  0
 13 48  1  0
 16 49  1  0
 17 50  1  0
 19 51  1  0
 19 52  1  0
 19 53  1  0
 20 54  1  0
 20 55  1  0
 21 56  1  0
 21 57  1  0
 24 58  1  0
 25 59  1  0
 30 60  1  0
 31 61  1  0
 31 62  1  0
 32 63  1  0
 32 64  1  0
 33 65  1  0
 34 66  1  0
 35 67  1  0
 35 68  1  0
 36 69  1  0
 36 70  1  0
M  END
> <Name>
Molecule

> <AbsoluteEnergy>
56.4218

> <Clean Energy>
216.53

> <ConfNumber>
40

> <MOL_NUMBER>
7

> <RelativeEnergy>
12.6488

> <POSE_NUMBER>
47

> <LibDockScore>
113.5881

> <HotSpots>
1.27,-23.52,47.59,A,27,5
-0.93,-23.32,46.98,A,25,7
-7.33,-24.12,50.38,A,44,17

$$$$
Molecule
  SciTegic05072616053D

 70 74  0  0  0  0            999 V2000
    1.7600  -23.0850   50.8955 C   0  0  0  1  0  0
    1.6677  -24.5943   50.5944 C   0  0  0  1  0  0
    2.8662  -25.3198   51.2503 C   0  0  0  1  0  0
    1.4910  -24.8362   49.1061 C   0  0  0  1  0  0
    2.6460  -24.6472   48.3054 C   0  0  0  1  0  0
    2.6273  -24.8221   46.9202 C   0  0  0  1  0  0
    1.4387  -25.1802   46.2899 C   0  0  0  1  0  0
    0.2807  -25.3631   47.0484 C   0  0  0  1  0  0
    0.2549  -25.2163   48.4628 C   0  0  0  1  0  0
   -1.1271  -25.4677   49.1088 C   0  0  0  1  0  0
   -2.0820  -24.3628   48.6309 C   0  0  0  1  0  0
   -2.0576  -23.2999   49.2015 O   0  0  0  1  0  0
   -2.9527  -24.5684   47.5782 N   0  0  0  1  0  0
   -3.9973  -23.6477   47.0516 C   0  0  0  1  0  0
   -4.3738  -23.7071   45.7382 N   0  0  0  1  0  0
   -5.3097  -22.7615   45.5401 C   0  0  0  1  0  0
   -5.5357  -22.1196   46.7461 C   0  0  0  1  0  0
   -4.7338  -22.6661   47.6885 N   0  0  0  1  0  0
   -4.7287  -22.2461   49.1023 C   0  0  0  1  0  0
   -1.6094  -26.9223   48.7870 C   0  0  0  1  0  0
   -3.0248  -27.2932   49.2658 C   0  0  0  1  0  0
   -3.3822  -26.8219   50.6389 N   0  0  0  1  0  0
   -4.4559  -27.3809   51.3392 C   0  0  0  1  0  0
   -4.6008  -28.7808   51.5082 C   0  0  0  1  0  0
   -5.7188  -29.3133   52.1734 C   0  0  0  1  0  0
   -6.7109  -28.4582   52.6827 C   0  0  0  1  0  0
   -7.9445  -29.0354   53.3418 C   0  0  0  1  0  0
   -8.8096  -29.8617   52.3878 C   0  0  0  1  0  0
   -8.3209  -30.3248   51.3800 O   0  0  0  1  0  0
  -10.0942  -30.0571   52.6860 O   0  0  0  1  0  0
   -8.6312  -28.2215   54.4298 C   0  0  0  1  0  0
   -7.8674  -29.4721   54.7980 C   0  0  0  1  0  0
   -6.5598  -27.0670   52.5604 C   0  0  0  1  0  0
   -5.4450  -26.5353   51.8947 C   0  0  0  1  0  0
   -2.6210  -25.6804   51.2295 C   0  0  0  1  0  0
   -1.2066  -25.4783   50.6607 C   0  0  0  1  0  0
    2.6903  -22.6871   50.4902 H   0  0
    1.7349  -22.9246   51.9733 H   0  0
    0.9165  -22.5713   50.4344 H   0  0
    0.7750  -25.0300   51.0431 H   0  0
    2.8431  -25.1634   52.3288 H   0  0
    3.7985  -24.9259   50.8457 H   0  0
    2.8034  -26.3873   51.0389 H   0  0
    3.5793  -24.3557   48.7872 H   0  0
    3.5367  -24.6793   46.3366 H   0  0
    1.4122  -25.3172   45.2089 H   0  0
   -0.6429  -25.6298   46.5346 H   0  0
   -2.8650  -25.5098   47.0773 H   0  0
   -5.8043  -22.5391   44.5946 H   0  0
   -6.2437  -21.3071   46.9093 H   0  0
   -3.6677  -22.0463   49.2523 H   0  0
   -4.9050  -23.1999   49.5995 H   0  0
   -5.3953  -21.4394   49.4073 H   0  0
   -1.5613  -27.0716   47.7083 H   0  0
   -0.9028  -27.6267   49.2258 H   0  0
   -3.7490  -26.8850   48.5607 H   0  0
   -3.1311  -28.3775   49.2341 H   0  0
   -3.8362  -29.4524   51.1177 H   0  0
   -5.8164  -30.3921   52.2945 H   0  0
  -10.4992  -29.0945   52.7950 H   0  0
   -9.7079  -28.3912   54.4369 H   0  0
   -8.0673  -27.3203   54.6703 H   0  0
   -6.8972  -29.2365   55.2354 H   0  0
   -8.5374  -30.3077   55.0004 H   0  0
   -7.3102  -26.3992   52.9835 H   0  0
   -5.3393  -25.4542   51.8041 H   0  0
   -2.5451  -25.8318   52.3063 H   0  0
   -3.1925  -24.7650   51.0762 H   0  0
   -0.8102  -24.5360   51.0389 H   0  0
   -0.5620  -26.2718   51.0388 H   0  0
  1  2  1  0
  2  3  1  0
  2  4  1  0
  4  5  2  0
  4  9  1  0
  5  6  1  0
  6  7  2  0
  7  8  1  0
  8  9  2  0
  9 10  1  0
 10 11  1  0
 10 20  1  0
 10 36  1  0
 11 12  2  0
 11 13  1  0
 13 14  1  0
 14 15  2  0
 14 18  1  0
 15 16  1  0
 16 17  2  0
 17 18  1  0
 18 19  1  0
 20 21  1  0
 21 22  1  0
 22 23  1  0
 22 35  1  0
 23 24  2  0
 23 34  1  0
 24 25  1  0
 25 26  2  0
 26 27  1  0
 26 33  1  0
 27 28  1  0
 27 31  1  0
 27 32  1  0
 28 29  2  0
 28 30  1  0
 31 32  1  0
 33 34  2  0
 35 36  1  0
  1 37  1  0
  1 38  1  0
  1 39  1  0
  2 40  1  0
  3 41  1  0
  3 42  1  0
  3 43  1  0
  5 44  1  0
  6 45  1  0
  7 46  1  0
  8 47  1  0
 13 48  1  0
 16 49  1  0
 17 50  1  0
 19 51  1  0
 19 52  1  0
 19 53  1  0
 20 54  1  0
 20 55  1  0
 21 56  1  0
 21 57  1  0
 24 58  1  0
 25 59  1  0
 30 60  1  0
 31 61  1  0
 31 62  1  0
 32 63  1  0
 32 64  1  0
 33 65  1  0
 34 66  1  0
 35 67  1  0
 35 68  1  0
 36 69  1  0
 36 70  1  0
M  END
> <Name>
Molecule

> <AbsoluteEnergy>
61.1221

> <Clean Energy>
216.53

> <ConfNumber>
67

> <MOL_NUMBER>
7

> <RelativeEnergy>
17.3491

> <POSE_NUMBER>
48

> <LibDockScore>
112.6933

> <HotSpots>
2.67,-23.92,48.98,A,32,5
1.87,-24.92,46.78,A,22,7
-5.13,-22.92,46.19,A,18,16

$$$$
Molecule
  SciTegic05072616053D

 70 74  0  0  0  0            999 V2000
   -0.2072  -24.6276   46.8377 C   0  0  0  1  0  0
    0.9937  -25.2541   47.5623 C   0  0  0  1  0  0
    0.8823  -26.7824   47.7368 C   0  0  0  1  0  0
    1.5713  -24.5204   48.7721 C   0  0  0  1  0  0
    2.9277  -24.1370   48.6091 C   0  0  0  1  0  0
    3.6300  -23.4408   49.5943 C   0  0  0  1  0  0
    2.9905  -23.1054   50.7854 C   0  0  0  1  0  0
    1.6572  -23.4762   50.9863 C   0  0  0  1  0  0
    0.9068  -24.1960   50.0153 C   0  0  0  1  0  0
   -0.5514  -24.5694   50.3591 C   0  0  0  1  0  0
   -1.5137  -23.7277   49.5038 C   0  0  0  1  0  0
   -1.0845  -22.7712   48.8973 O   0  0  0  1  0  0
   -2.8589  -24.0410   49.4074 N   0  0  0  1  0  0
   -3.8082  -23.4274   48.4468 C   0  0  0  1  0  0
   -3.4863  -22.8422   47.2540 N   0  0  0  1  0  0
   -4.6378  -22.4095   46.7032 C   0  0  0  1  0  0
   -5.6783  -22.7330   47.5622 C   0  0  0  1  0  0
   -5.1643  -23.3670   48.6378 N   0  0  0  1  0  0
   -5.9275  -23.8849   49.7877 C   0  0  0  1  0  0
   -0.9531  -24.2008   51.8316 C   0  0  0  1  0  0
   -2.3671  -24.6483   52.2513 C   0  0  0  1  0  0
   -2.6289  -26.0795   51.9276 N   0  0  0  1  0  0
   -3.8902  -26.6565   52.1060 C   0  0  0  1  0  0
   -5.0484  -25.8502   52.2188 C   0  0  0  1  0  0
   -6.3191  -26.4252   52.3673 C   0  0  0  1  0  0
   -6.4623  -27.8214   52.4187 C   0  0  0  1  0  0
   -7.8317  -28.4393   52.5690 C   0  0  0  1  0  0
   -8.3954  -28.2978   53.9738 C   0  0  0  1  0  0
   -8.1722  -29.1632   54.7878 O   0  0  0  1  0  0
   -9.1232  -27.2214   54.2702 O   0  0  0  1  0  0
   -8.1755  -29.6936   51.7801 C   0  0  0  1  0  0
   -8.8033  -28.3755   51.4003 C   0  0  0  1  0  0
   -5.3219  -28.6371   52.3298 C   0  0  0  1  0  0
   -4.0500  -28.0606   52.1797 C   0  0  0  1  0  0
   -1.4586  -26.8448   51.4085 C   0  0  0  1  0  0
   -0.7293  -26.1253   50.2500 C   0  0  0  1  0  0
   -1.1016  -24.8669   47.4129 H   0  0
   -0.2882  -25.1034   45.8604 H   0  0
   -0.0906  -23.5488   46.7344 H   0  0
    1.7899  -25.0818   46.8380 H   0  0
    0.7829  -27.2219   46.7443 H   0  0
   -0.0305  -26.9853   48.2969 H   0  0
    1.7520  -27.1876   48.2541 H   0  0
    3.4393  -24.3952   47.6819 H   0  0
    4.6712  -23.1617   49.4327 H   0  0
    3.5276  -22.5557   51.5584 H   0  0
    1.1736  -23.2029   51.9241 H   0  0
   -3.2430  -24.7822   50.0768 H   0  0
   -4.7349  -21.8942   45.7476 H   0  0
   -6.7328  -22.5125   47.3966 H   0  0
   -5.4275  -23.4019   50.6272 H   0  0
   -5.6091  -24.9269   49.8198 H   0  0
   -7.0086  -23.7470   49.7704 H   0  0
   -0.8796  -23.1203   51.9548 H   0  0
   -0.2300  -24.6483   52.5135 H   0  0
   -2.4838  -24.5003   53.3249 H   0  0
   -3.1043  -24.0287   51.7407 H   0  0
   -4.9511  -24.7649   52.1898 H   0  0
   -7.1988  -25.7860   52.4431 H   0  0
   -9.9042  -27.2164   53.5685 H   0  0
   -8.8734  -30.3298   52.3244 H   0  0
   -7.3719  -29.9685   51.0969 H   0  0
   -8.3353  -27.9474   50.5139 H   0  0
   -9.8359  -28.3079   51.7426 H   0  0
   -5.4246  -29.7212   52.3775 H   0  0
   -3.1726  -28.7045   52.1191 H   0  0
   -1.7990  -27.8201   51.0607 H   0  0
   -0.7535  -27.0081   52.2235 H   0  0
    0.2567  -26.5760   50.1374 H   0  0
   -1.2622  -26.3444   49.3247 H   0  0
  1  2  1  0
  2  3  1  0
  2  4  1  0
  4  5  2  0
  4  9  1  0
  5  6  1  0
  6  7  2  0
  7  8  1  0
  8  9  2  0
  9 10  1  0
 10 11  1  0
 10 20  1  0
 10 36  1  0
 11 12  2  0
 11 13  1  0
 13 14  1  0
 14 15  2  0
 14 18  1  0
 15 16  1  0
 16 17  2  0
 17 18  1  0
 18 19  1  0
 20 21  1  0
 21 22  1  0
 22 23  1  0
 22 35  1  0
 23 24  2  0
 23 34  1  0
 24 25  1  0
 25 26  2  0
 26 27  1  0
 26 33  1  0
 27 28  1  0
 27 31  1  0
 27 32  1  0
 28 29  2  0
 28 30  1  0
 31 32  1  0
 33 34  2  0
 35 36  1  0
  1 37  1  0
  1 38  1  0
  1 39  1  0
  2 40  1  0
  3 41  1  0
  3 42  1  0
  3 43  1  0
  5 44  1  0
  6 45  1  0
  7 46  1  0
  8 47  1  0
 13 48  1  0
 16 49  1  0
 17 50  1  0
 19 51  1  0
 19 52  1  0
 19 53  1  0
 20 54  1  0
 20 55  1  0
 21 56  1  0
 21 57  1  0
 24 58  1  0
 25 59  1  0
 30 60  1  0
 31 61  1  0
 31 62  1  0
 32 63  1  0
 32 64  1  0
 33 65  1  0
 34 66  1  0
 35 67  1  0
 35 68  1  0
 36 69  1  0
 36 70  1  0
M  END
> <Name>
Molecule

> <AbsoluteEnergy>
55.8175

> <Clean Energy>
216.53

> <ConfNumber>
35

> <MOL_NUMBER>
7

> <RelativeEnergy>
12.0445

> <POSE_NUMBER>
49

> <LibDockScore>
112.5276

> <HotSpots>
2.67,-22.92,49.98,A,39,7
-5.13,-22.92,46.19,A,18,16
-6.33,-26.32,51.98,A,57,25

$$$$
Molecule
  SciTegic05072616053D

 70 74  0  0  0  0            999 V2000
    1.6852  -24.0418   47.9335 C   0  0  0  1  0  0
    0.3718  -24.5760   47.3320 C   0  0  0  1  0  0
    0.6211  -25.4030   46.0562 C   0  0  0  1  0  0
   -0.6348  -23.4676   47.1302 C   0  0  0  1  0  0
   -0.3664  -22.5698   46.0636 C   0  0  0  1  0  0
   -1.2323  -21.5141   45.7593 C   0  0  0  1  0  0
   -2.3906  -21.3343   46.5200 C   0  0  0  1  0  0
   -2.6718  -22.2035   47.5887 C   0  0  0  1  0  0
   -1.8100  -23.2815   47.9405 C   0  0  0  1  0  0
   -2.1629  -24.1738   49.1541 C   0  0  0  1  0  0
   -1.0821  -24.0461   50.2488 C   0  0  0  1  0  0
   -1.1830  -23.1445   51.0482 O   0  0  0  1  0  0
   -0.0164  -24.9184   50.3518 N   0  0  0  1  0  0
    1.0616  -24.8662   51.3692 C   0  0  0  1  0  0
    2.3526  -25.2156   51.0787 N   0  0  0  1  0  0
    3.0665  -25.0563   52.2116 C   0  0  0  1  0  0
    2.2106  -24.6140   53.2109 C   0  0  0  1  0  0
    0.9652  -24.5045   52.6990 N   0  0  0  1  0  0
   -0.2339  -24.1197   53.4717 C   0  0  0  1  0  0
   -3.4736  -23.7083   49.8788 C   0  0  0  1  0  0
   -3.8520  -24.5485   51.1119 C   0  0  0  1  0  0
   -3.9685  -26.0012   50.7992 N   0  0  0  1  0  0
   -4.9176  -26.8039   51.4266 C   0  0  0  1  0  0
   -6.1221  -26.2623   51.9273 C   0  0  0  1  0  0
   -7.0717  -27.0872   52.5557 C   0  0  0  1  0  0
   -6.8587  -28.4781   52.6881 C   0  0  0  1  0  0
   -7.9329  -29.3562   53.3394 C   0  0  0  1  0  0
   -7.4364  -30.3107   54.4345 C   0  0  0  1  0  0
   -8.0073  -30.3603   55.5005 O   0  0  0  1  0  0
   -6.3906  -31.0924   54.1769 O   0  0  0  1  0  0
   -9.0547  -29.9510   52.4867 C   0  0  0  1  0  0
   -9.3636  -28.8274   53.4578 C   0  0  0  1  0  0
   -5.6412  -29.0147   52.2073 C   0  0  0  1  0  0
   -4.6873  -28.1891   51.5813 C   0  0  0  1  0  0
   -2.9934  -26.5921   49.8296 C   0  0  0  1  0  0
   -2.5401  -25.6225   48.7035 C   0  0  0  1  0  0
    2.1796  -23.4207   47.1866 H   0  0
    2.3278  -24.8903   48.1682 H   0  0
    1.4853  -23.4607   48.8337 H   0  0
   -0.0686  -25.2635   48.0541 H   0  0
    1.2736  -26.2389   46.3085 H   0  0
    1.1254  -24.7692   45.3268 H   0  0
   -0.3205  -25.7704   45.6482 H   0  0
    0.5359  -22.7064   45.4676 H   0  0
   -1.0053  -20.8373   44.9356 H   0  0
   -3.0761  -20.5202   46.2848 H   0  0
   -3.5814  -22.0468   48.1685 H   0  0
    0.0366  -25.7061   49.6296 H   0  0
    4.1345  -25.2432   52.3236 H   0  0
    2.4962  -24.3917   54.2391 H   0  0
   -0.8883  -24.9716   53.2868 H   0  0
   -0.6353  -23.3157   52.8548 H   0  0
   -0.1045  -23.8650   54.5236 H   0  0
   -3.3541  -22.6697   50.1871 H   0  0
   -4.2992  -23.7404   49.1678 H   0  0
   -3.0933  -24.4116   51.8824 H   0  0
   -4.8039  -24.1938   51.5071 H   0  0
   -6.3174  -25.1948   51.8256 H   0  0
   -7.9882  -26.6462   52.9476 H   0  0
   -5.6200  -30.4370   53.8955 H   0  0
   -9.3806  -30.9167   52.8731 H   0  0
   -9.0071  -29.5918   51.4587 H   0  0
   -9.4802  -27.8732   52.9440 H   0  0
   -9.8521  -29.1982   54.3589 H   0  0
   -5.4391  -30.0796   52.3227 H   0  0
   -3.7591  -28.6246   51.2113 H   0  0
   -3.4438  -27.4733   49.3728 H   0  0
   -2.1136  -26.9269   50.3791 H   0  0
   -1.6819  -26.0621   48.1951 H   0  0
   -3.3371  -25.5578   47.9627 H   0  0
  1  2  1  0
  2  3  1  0
  2  4  1  0
  4  5  2  0
  4  9  1  0
  5  6  1  0
  6  7  2  0
  7  8  1  0
  8  9  2  0
  9 10  1  0
 10 11  1  0
 10 20  1  0
 10 36  1  0
 11 12  2  0
 11 13  1  0
 13 14  1  0
 14 15  2  0
 14 18  1  0
 15 16  1  0
 16 17  2  0
 17 18  1  0
 18 19  1  0
 20 21  1  0
 21 22  1  0
 22 23  1  0
 22 35  1  0
 23 24  2  0
 23 34  1  0
 24 25  1  0
 25 26  2  0
 26 27  1  0
 26 33  1  0
 27 28  1  0
 27 31  1  0
 27 32  1  0
 28 29  2  0
 28 30  1  0
 31 32  1  0
 33 34  2  0
 35 36  1  0
  1 37  1  0
  1 38  1  0
  1 39  1  0
  2 40  1  0
  3 41  1  0
  3 42  1  0
  3 43  1  0
  5 44  1  0
  6 45  1  0
  7 46  1  0
  8 47  1  0
 13 48  1  0
 16 49  1  0
 17 50  1  0
 19 51  1  0
 19 52  1  0
 19 53  1  0
 20 54  1  0
 20 55  1  0
 21 56  1  0
 21 57  1  0
 24 58  1  0
 25 59  1  0
 30 60  1  0
 31 61  1  0
 31 62  1  0
 32 63  1  0
 32 64  1  0
 33 65  1  0
 34 66  1  0
 35 67  1  0
 35 68  1  0
 36 69  1  0
 36 70  1  0
M  END
> <Name>
Molecule

> <AbsoluteEnergy>
58.4366

> <Clean Energy>
216.53

> <ConfNumber>
50

> <MOL_NUMBER>
7

> <RelativeEnergy>
14.6636

> <POSE_NUMBER>
50

> <LibDockScore>
112.3774

> <HotSpots>
1.27,-23.52,47.59,A,27,1
2.27,-24.92,52.19,A,58,16
-6.33,-26.32,51.98,A,57,24

$$$$
Molecule
  SciTegic05072616053D

 70 74  0  0  0  0            999 V2000
   -1.9640  -23.3281   48.6846 C   0  0  0  1  0  0
   -3.1405  -24.3195   48.7997 C   0  0  0  1  0  0
   -3.3657  -25.0494   47.4586 C   0  0  0  1  0  0
   -4.4058  -23.6489   49.2963 C   0  0  0  1  0  0
   -4.9573  -22.6532   48.4592 C   0  0  0  1  0  0
   -6.1210  -21.9640   48.8163 C   0  0  0  1  0  0
   -6.7554  -22.2597   50.0242 C   0  0  0  1  0  0
   -6.2287  -23.2435   50.8700 C   0  0  0  1  0  0
   -5.0532  -23.9660   50.5394 C   0  0  0  1  0  0
   -4.5190  -25.0450   51.4964 C   0  0  0  1  0  0
   -3.1120  -24.6795   52.0156 C   0  0  0  1  0  0
   -2.6252  -23.5989   51.7685 O   0  0  0  1  0  0
   -2.3947  -25.5867   52.7768 N   0  0  0  1  0  0
   -0.9251  -25.5674   52.9802 C   0  0  0  1  0  0
   -0.0422  -24.6693   52.4449 N   0  0  0  1  0  0
    1.1855  -25.0149   52.8823 C   0  0  0  1  0  0
    1.0594  -26.1352   53.6929 C   0  0  0  1  0  0
   -0.2485  -26.4738   53.7537 N   0  0  0  1  0  0
   -0.8238  -27.6035   54.5101 C   0  0  0  1  0  0
   -5.3586  -25.1724   52.8374 C   0  0  0  1  0  0
   -6.6351  -26.0375   52.7577 C   0  0  0  1  0  0
   -6.2417  -27.3259   52.1550 N   0  0  0  1  0  0
   -6.0532  -28.5010   52.8749 C   0  0  0  1  0  0
   -5.1834  -29.5203   52.4210 C   0  0  0  1  0  0
   -4.8583  -30.6020   53.2568 C   0  0  0  1  0  0
   -5.4089  -30.6808   54.5486 C   0  0  0  1  0  0
   -4.9375  -31.7326   55.5232 C   0  0  0  1  0  0
   -3.9197  -31.1743   56.5252 C   0  0  0  1  0  0
   -2.7472  -31.4317   56.3729 O   0  0  0  1  0  0
   -4.3255  -30.4091   57.5479 O   0  0  0  1  0  0
   -4.8082  -33.1714   55.0440 C   0  0  0  1  0  0
   -5.9076  -32.7974   56.0086 C   0  0  0  1  0  0
   -6.3818  -29.7510   54.9483 C   0  0  0  1  0  0
   -6.7046  -28.6716   54.1165 C   0  0  0  1  0  0
   -5.8706  -27.1765   50.7351 C   0  0  0  1  0  0
   -4.5291  -26.4236   50.7151 C   0  0  0  1  0  0
   -2.1882  -22.5984   47.9065 H   0  0
   -1.0619  -23.8762   48.4128 H   0  0
   -1.8127  -22.8178   49.6358 H   0  0
   -2.8749  -25.0647   49.5495 H   0  0
   -2.4584  -25.5911   47.1914 H   0  0
   -3.5846  -24.3133   46.6851 H   0  0
   -4.1982  -25.7471   47.5497 H   0  0
   -4.4657  -22.4172   47.5154 H   0  0
   -6.5302  -21.2002   48.1550 H   0  0
   -7.6612  -21.7245   50.3090 H   0  0
   -6.7365  -23.4606   51.8097 H   0  0
   -2.9462  -26.3668   53.2586 H   0  0
    2.1170  -24.5028   52.6410 H   0  0
    1.8761  -26.6538   54.1951 H   0  0
   -1.3768  -28.1371   53.7371 H   0  0
   -1.5792  -27.1081   55.1200 H   0  0
   -0.1306  -28.2265   55.0752 H   0  0
   -5.6406  -24.1726   53.1675 H   0  0
   -4.7125  -25.5827   53.6135 H   0  0
   -7.3765  -25.5460   52.1277 H   0  0
   -7.0315  -26.2037   53.7594 H   0  0
   -4.7629  -29.4662   51.4168 H   0  0
   -4.1801  -31.3792   52.9044 H   0  0
   -5.0376  -30.9966   58.0482 H   0  0
   -3.9907  -33.6884   55.5466 H   0  0
   -5.1866  -33.2896   54.0287 H   0  0
   -6.8724  -32.7183   55.5077 H   0  0
   -5.6763  -33.1154   57.0252 H   0  0
   -6.8865  -29.8693   55.9071 H   0  0
   -7.4653  -27.9567   54.4300 H   0  0
   -5.7501  -28.1583   50.2773 H   0  0
   -6.6287  -26.5943   50.2113 H   0  0
   -4.2502  -26.2392   49.6776 H   0  0
   -3.7615  -27.0716   51.1382 H   0  0
  1  2  1  0
  2  3  1  0
  2  4  1  0
  4  5  2  0
  4  9  1  0
  5  6  1  0
  6  7  2  0
  7  8  1  0
  8  9  2  0
  9 10  1  0
 10 11  1  0
 10 20  1  0
 10 36  1  0
 11 12  2  0
 11 13  1  0
 13 14  1  0
 14 15  2  0
 14 18  1  0
 15 16  1  0
 16 17  2  0
 17 18  1  0
 18 19  1  0
 20 21  1  0
 21 22  1  0
 22 23  1  0
 22 35  1  0
 23 24  2  0
 23 34  1  0
 24 25  1  0
 25 26  2  0
 26 27  1  0
 26 33  1  0
 27 28  1  0
 27 31  1  0
 27 32  1  0
 28 29  2  0
 28 30  1  0
 31 32  1  0
 33 34  2  0
 35 36  1  0
  1 37  1  0
  1 38  1  0
  1 39  1  0
  2 40  1  0
  3 41  1  0
  3 42  1  0
  3 43  1  0
  5 44  1  0
  6 45  1  0
  7 46  1  0
  8 47  1  0
 13 48  1  0
 16 49  1  0
 17 50  1  0
 19 51  1  0
 19 52  1  0
 19 53  1  0
 20 54  1  0
 20 55  1  0
 21 56  1  0
 21 57  1  0
 24 58  1  0
 25 59  1  0
 30 60  1  0
 31 61  1  0
 31 62  1  0
 32 63  1  0
 32 64  1  0
 33 65  1  0
 34 66  1  0
 35 67  1  0
 35 68  1  0
 36 69  1  0
 36 70  1  0
M  END
> <Name>
Molecule

> <AbsoluteEnergy>
53.1641

> <Clean Energy>
216.53

> <ConfNumber>
21

> <MOL_NUMBER>
7

> <RelativeEnergy>
9.39115

> <POSE_NUMBER>
51

> <LibDockScore>
111.7

> <HotSpots>
-5.53,-22.92,48.98,A,33,7
-6.33,-26.32,51.98,A,57,21
-3.33,-33.72,54.98,P,58,29

$$$$
Molecule
  SciTegic05072616053D

 70 74  0  0  0  0            999 V2000
   -1.2031  -23.7421   46.9376 C   0  0  0  1  0  0
   -0.3818  -24.9410   47.4482 C   0  0  0  1  0  0
    0.3974  -25.6160   46.2993 C   0  0  0  1  0  0
    0.5004  -24.5485   48.6133 C   0  0  0  1  0  0
    1.6876  -23.8505   48.2893 C   0  0  0  1  0  0
    2.6031  -23.4663   49.2751 C   0  0  0  1  0  0
    2.3416  -23.7704   50.6114 C   0  0  0  1  0  0
    1.1627  -24.4438   50.9589 C   0  0  0  1  0  0
    0.1975  -24.8376   49.9879 C   0  0  0  1  0  0
   -1.0978  -25.5347   50.4482 C   0  0  0  1  0  0
   -2.3526  -24.8723   49.8583 C   0  0  0  1  0  0
   -2.8061  -25.2616   48.8066 O   0  0  0  1  0  0
   -3.0214  -23.8796   50.5404 N   0  0  0  1  0  0
   -4.2818  -23.3127   50.0176 C   0  0  0  1  0  0
   -4.5312  -22.9612   48.7183 N   0  0  0  1  0  0
   -5.8416  -22.6503   48.6509 C   0  0  0  1  0  0
   -6.3782  -22.7430   49.9288 C   0  0  0  1  0  0
   -5.3915  -23.0846   50.7832 N   0  0  0  1  0  0
   -5.5142  -23.2321   52.2446 C   0  0  0  1  0  0
   -1.0730  -27.0602   50.1233 C   0  0  0  1  0  0
   -2.3496  -27.8490   50.5417 C   0  0  0  1  0  0
   -3.1714  -27.2312   51.6341 N   0  0  0  1  0  0
   -4.4840  -27.6438   51.8562 C   0  0  0  1  0  0
   -4.8637  -28.9926   51.6708 C   0  0  0  1  0  0
   -6.1685  -29.4220   51.9864 C   0  0  0  1  0  0
   -7.1216  -28.5075   52.4757 C   0  0  0  1  0  0
   -8.5070  -28.9806   52.8786 C   0  0  0  1  0  0
   -9.2998  -29.6953   51.7816 C   0  0  0  1  0  0
   -9.7940  -30.7778   52.0175 O   0  0  0  1  0  0
   -9.4552  -29.1216   50.5881 O   0  0  0  1  0  0
   -9.3104  -28.1281   53.8486 C   0  0  0  1  0  0
   -8.7104  -29.4289   54.3208 C   0  0  0  1  0  0
   -6.7665  -27.1491   52.5987 C   0  0  0  1  0  0
   -5.4660  -26.7208   52.2856 C   0  0  0  1  0  0
   -2.5930  -26.1574   52.4995 C   0  0  0  1  0  0
   -1.2584  -25.5747   52.0043 C   0  0  0  1  0  0
   -1.9032  -24.0949   46.1802 H   0  0
   -0.5236  -23.0202   46.4845 H   0  0
   -1.7464  -23.2776   47.7605 H   0  0
   -1.0745  -25.6909   47.8302 H   0  0
    1.0656  -24.8809   45.8507 H   0  0
   -0.3139  -25.9556   45.5464 H   0  0
    0.9724  -26.4612   46.6775 H   0  0
    1.8939  -23.6063   47.2472 H   0  0
    3.5137  -22.9335   49.0012 H   0  0
    3.0541  -23.4843   51.3850 H   0  0
    0.9779  -24.6742   52.0081 H   0  0
   -2.6219  -23.5135   51.4630 H   0  0
   -6.3864  -22.3736   47.7483 H   0  0
   -7.4205  -22.5691   50.1962 H   0  0
   -4.6984  -22.6052   52.6045 H   0  0
   -5.1814  -24.2588   52.3970 H   0  0
   -6.4835  -23.0046   52.6882 H   0  0
   -0.9230  -27.1855   49.0510 H   0  0
   -0.2106  -27.5084   50.6168 H   0  0
   -2.0531  -28.8491   50.8579 H   0  0
   -2.9831  -27.9753   49.6638 H   0  0
   -4.1401  -29.7079   51.2798 H   0  0
   -6.4418  -30.4685   51.8510 H   0  0
   -8.4772  -28.9295   50.2577 H   0  0
  -10.3817  -28.2204   53.6698 H   0  0
   -8.7357  -27.2698   54.1966 H   0  0
   -7.8147  -29.2652   54.9201 H   0  0
   -9.4607  -30.2164   54.3916 H   0  0
   -7.5069  -26.4253   52.9394 H   0  0
   -5.2105  -25.6649   52.3746 H   0  0
   -2.4476  -26.5581   53.5027 H   0  0
   -3.3182  -25.3478   52.5812 H   0  0
   -1.1548  -24.5620   52.3939 H   0  0
   -0.4436  -26.1638   52.4252 H   0  0
  1  2  1  0
  2  3  1  0
  2  4  1  0
  4  5  2  0
  4  9  1  0
  5  6  1  0
  6  7  2  0
  7  8  1  0
  8  9  2  0
  9 10  1  0
 10 11  1  0
 10 20  1  0
 10 36  1  0
 11 12  2  0
 11 13  1  0
 13 14  1  0
 14 15  2  0
 14 18  1  0
 15 16  1  0
 16 17  2  0
 17 18  1  0
 18 19  1  0
 20 21  1  0
 21 22  1  0
 22 23  1  0
 22 35  1  0
 23 24  2  0
 23 34  1  0
 24 25  1  0
 25 26  2  0
 26 27  1  0
 26 33  1  0
 27 28  1  0
 27 31  1  0
 27 32  1  0
 28 29  2  0
 28 30  1  0
 31 32  1  0
 33 34  2  0
 35 36  1  0
  1 37  1  0
  1 38  1  0
  1 39  1  0
  2 40  1  0
  3 41  1  0
  3 42  1  0
  3 43  1  0
  5 44  1  0
  6 45  1  0
  7 46  1  0
  8 47  1  0
 13 48  1  0
 16 49  1  0
 17 50  1  0
 19 51  1  0
 19 52  1  0
 19 53  1  0
 20 54  1  0
 20 55  1  0
 21 56  1  0
 21 57  1  0
 24 58  1  0
 25 59  1  0
 30 60  1  0
 31 61  1  0
 31 62  1  0
 32 63  1  0
 32 64  1  0
 33 65  1  0
 34 66  1  0
 35 67  1  0
 35 68  1  0
 36 69  1  0
 36 70  1  0
M  END
> <Name>
Molecule

> <AbsoluteEnergy>
58.16

> <Clean Energy>
216.53

> <ConfNumber>
47

> <MOL_NUMBER>
7

> <RelativeEnergy>
14.387

> <POSE_NUMBER>
52

> <LibDockScore>
111.1668

> <HotSpots>
-0.93,-23.32,46.98,A,25,1
1.67,-24.32,50.98,A,50,8
-8.73,-28.12,54.38,A,70,31

$$$$
Molecule
  SciTegic05072616053D

 70 74  0  0  0  0            999 V2000
   -2.4925  -29.6019   55.7897 C   0  0  0  1  0  0
   -3.9186  -30.1879   55.8362 C   0  0  0  1  0  0
   -4.3060  -30.6190   57.2654 C   0  0  0  1  0  0
   -4.1115  -31.3089   54.8380 C   0  0  0  1  0  0
   -3.5287  -32.5354   55.2430 C   0  0  0  1  0  0
   -3.6321  -33.6966   54.4750 C   0  0  0  1  0  0
   -4.3323  -33.6630   53.2714 C   0  0  0  1  0  0
   -4.9112  -32.4648   52.8409 C   0  0  0  1  0  0
   -4.8102  -31.2508   53.5755 C   0  0  0  1  0  0
   -5.4983  -30.0516   52.8820 C   0  0  0  1  0  0
   -7.0111  -30.3218   52.8117 C   0  0  0  1  0  0
   -7.5690  -30.3599   51.7381 O   0  0  0  1  0  0
   -7.7391  -30.5079   53.9727 N   0  0  0  1  0  0
   -9.2134  -30.6776   54.0133 C   0  0  0  1  0  0
  -10.0710  -30.3399   53.0027 N   0  0  0  1  0  0
  -11.3173  -30.6202   53.4267 C   0  0  0  1  0  0
  -11.2304  -31.1395   54.7105 C   0  0  0  1  0  0
   -9.9289  -31.1791   55.0735 N   0  0  0  1  0  0
   -9.4209  -31.6740   56.3681 C   0  0  0  1  0  0
   -4.9473  -29.9097   51.4056 C   0  0  0  1  0  0
   -3.6294  -29.1263   51.2669 C   0  0  0  1  0  0
   -3.8579  -27.7857   51.8476 N   0  0  0  1  0  0
   -3.9323  -26.6223   51.0934 C   0  0  0  1  0  0
   -4.6003  -25.4927   51.6150 C   0  0  0  1  0  0
   -4.7352  -24.3239   50.8530 C   0  0  0  1  0  0
   -4.1927  -24.2585   49.5578 C   0  0  0  1  0  0
   -4.3532  -23.0036   48.7334 C   0  0  0  1  0  0
   -3.0587  -22.2215   48.5837 C   0  0  0  1  0  0
   -2.3189  -22.1196   49.5362 O   0  0  0  1  0  0
   -2.7731  -21.6676   47.4065 O   0  0  0  1  0  0
   -5.6553  -22.2208   48.8280 C   0  0  0  1  0  0
   -5.3368  -22.9957   47.5732 C   0  0  0  1  0  0
   -3.5039  -25.3683   49.0369 C   0  0  0  1  0  0
   -3.3721  -26.5431   49.7984 C   0  0  0  1  0  0
   -4.1240  -27.8329   53.2988 C   0  0  0  1  0  0
   -5.4349  -28.6208   53.5257 C   0  0  0  1  0  0
   -1.7934  -30.3592   56.1444 H   0  0
   -2.4487  -28.7398   56.4552 H   0  0
   -2.2372  -29.3034   54.7729 H   0  0
   -4.5992  -29.3894   55.5407 H   0  0
   -4.2477  -29.7488   57.9192 H   0  0
   -3.5924  -31.3682   57.6083 H   0  0
   -5.3155  -31.0299   57.2780 H   0  0
   -2.9817  -32.5734   56.1851 H   0  0
   -3.1683  -34.6227   54.8147 H   0  0
   -4.4286  -34.5658   52.6682 H   0  0
   -5.4639  -32.4610   51.9014 H   0  0
   -7.2062  -30.5310   54.9002 H   0  0
  -12.2355  -30.4660   52.8599 H   0  0
  -12.0716  -31.4619   55.3241 H   0  0
   -8.8289  -30.8246   56.7089 H   0  0
   -8.6933  -32.4191   56.0462 H   0  0
  -10.1501  -32.0370   57.0924 H   0  0
   -4.8029  -30.9069   50.9900 H   0  0
   -5.7063  -29.4212   50.7945 H   0  0
   -2.8378  -29.6362   51.8160 H   0  0
   -3.3646  -29.0318   50.2138 H   0  0
   -5.0159  -25.5301   52.6220 H   0  0
   -5.2621  -23.4636   51.2658 H   0  0
   -3.5929  -21.0488   47.1885 H   0  0
   -5.4898  -21.1518   48.6938 H   0  0
   -6.3886  -22.7390   49.4460 H   0  0
   -5.9013  -23.9267   47.5209 H   0  0
   -5.0013  -22.3402   46.7695 H   0  0
   -3.0701  -25.3177   48.0382 H   0  0
   -2.8347  -27.3977   49.3874 H   0  0
   -4.2352  -26.8198   53.6853 H   0  0
   -3.3018  -28.3376   53.8061 H   0  0
   -5.5986  -28.7153   54.5992 H   0  0
   -6.2642  -28.0293   53.1377 H   0  0
  1  2  1  0
  2  3  1  0
  2  4  1  0
  4  5  2  0
  4  9  1  0
  5  6  1  0
  6  7  2  0
  7  8  1  0
  8  9  2  0
  9 10  1  0
 10 11  1  0
 10 20  1  0
 10 36  1  0
 11 12  2  0
 11 13  1  0
 13 14  1  0
 14 15  2  0
 14 18  1  0
 15 16  1  0
 16 17  2  0
 17 18  1  0
 18 19  1  0
 20 21  1  0
 21 22  1  0
 22 23  1  0
 22 35  1  0
 23 24  2  0
 23 34  1  0
 24 25  1  0
 25 26  2  0
 26 27  1  0
 26 33  1  0
 27 28  1  0
 27 31  1  0
 27 32  1  0
 28 29  2  0
 28 30  1  0
 31 32  1  0
 33 34  2  0
 35 36  1  0
  1 37  1  0
  1 38  1  0
  1 39  1  0
  2 40  1  0
  3 41  1  0
  3 42  1  0
  3 43  1  0
  5 44  1  0
  6 45  1  0
  7 46  1  0
  8 47  1  0
 13 48  1  0
 16 49  1  0
 17 50  1  0
 19 51  1  0
 19 52  1  0
 19 53  1  0
 20 54  1  0
 20 55  1  0
 21 56  1  0
 21 57  1  0
 24 58  1  0
 25 59  1  0
 30 60  1  0
 31 61  1  0
 31 62  1  0
 32 63  1  0
 32 64  1  0
 33 65  1  0
 34 66  1  0
 35 67  1  0
 35 68  1  0
 36 69  1  0
 36 70  1  0
M  END
> <Name>
Molecule

> <AbsoluteEnergy>
57.6628

> <Clean Energy>
216.53

> <ConfNumber>
44

> <MOL_NUMBER>
7

> <RelativeEnergy>
13.8898

> <POSE_NUMBER>
53

> <LibDockScore>
110.8806

> <HotSpots>
-4.13,-31.12,56.59,A,79,5
-4.33,-32.92,55.19,A,75,7
-4.53,-24.52,46.19,A,17,31

$$$$
Molecule
  SciTegic05072616053D

 70 74  0  0  0  0            999 V2000
   -2.8256  -27.4388   46.3004 C   0  0  0  1  0  0
   -2.3395  -25.9851   46.2670 C   0  0  0  1  0  0
   -3.4827  -24.9627   46.4210 C   0  0  0  1  0  0
   -1.0644  -25.6514   47.0368 C   0  0  0  1  0  0
   -0.0254  -25.1376   46.2209 C   0  0  0  1  0  0
    1.2269  -24.7951   46.7324 C   0  0  0  1  0  0
    1.4730  -24.9492   48.0933 C   0  0  0  1  0  0
    0.4665  -25.4409   48.9365 C   0  0  0  1  0  0
   -0.8271  -25.7937   48.4569 C   0  0  0  1  0  0
   -1.8717  -26.2968   49.4777 C   0  0  0  1  0  0
   -3.1470  -25.4394   49.4578 C   0  0  0  1  0  0
   -4.2110  -25.9594   49.2099 O   0  0  0  1  0  0
   -3.0892  -24.0813   49.7414 N   0  0  0  1  0  0
   -4.2700  -23.1862   49.8439 C   0  0  0  1  0  0
   -5.5540  -23.4978   49.4870 N   0  0  0  1  0  0
   -6.3074  -22.4041   49.7219 C   0  0  0  1  0  0
   -5.4824  -21.4131   50.2351 C   0  0  0  1  0  0
   -4.2262  -21.9024   50.3191 N   0  0  0  1  0  0
   -3.0426  -21.1802   50.8182 C   0  0  0  1  0  0
   -2.1300  -27.8448   49.2734 C   0  0  0  1  0  0
   -2.2405  -28.7043   50.5572 C   0  0  0  1  0  0
   -3.0686  -27.9817   51.5504 N   0  0  0  1  0  0
   -4.3012  -28.4577   51.9898 C   0  0  0  1  0  0
   -5.2788  -27.5508   52.4522 C   0  0  0  1  0  0
   -6.5433  -28.0023   52.8660 C   0  0  0  1  0  0
   -6.8630  -29.3738   52.8390 C   0  0  0  1  0  0
   -8.2575  -29.8447   53.2391 C   0  0  0  1  0  0
   -8.5924  -29.7178   54.7303 C   0  0  0  1  0  0
   -8.7130  -28.6149   55.2100 O   0  0  0  1  0  0
   -8.7705  -30.8050   55.4921 O   0  0  0  1  0  0
   -8.9292  -30.9754   52.4664 C   0  0  0  1  0  0
   -9.3756  -29.5544   52.2461 C   0  0  0  1  0  0
   -5.8770  -30.2916   52.4135 C   0  0  0  1  0  0
   -4.6147  -29.8374   51.9760 C   0  0  0  1  0  0
   -2.4947  -26.6748   51.9900 C   0  0  0  1  0  0
   -1.4315  -26.1520   50.9815 C   0  0  0  1  0  0
   -3.5457  -27.5701   45.4927 H   0  0
   -3.3356  -27.5999   47.2501 H   0  0
   -1.9934  -28.1339   46.1891 H   0  0
   -1.9751  -25.8770   45.2454 H   0  0
   -3.9832  -25.1596   47.3691 H   0  0
   -4.1933  -25.1298   45.6115 H   0  0
   -3.1024  -23.9416   46.3929 H   0  0
   -0.2114  -25.0052   45.1551 H   0  0
    2.0046  -24.4107   46.0725 H   0  0
    2.4483  -24.6876   48.5038 H   0  0
    0.6822  -25.5574   49.9986 H   0  0
   -2.1234  -23.6480   49.8975 H   0  0
   -7.3784  -22.3141   49.5402 H   0  0
   -5.7954  -20.4092   50.5220 H   0  0
   -2.3487  -21.2751   49.9830 H   0  0
   -2.6693  -21.8576   51.5863 H   0  0
   -3.1938  -20.1563   51.1600 H   0  0
   -1.3279  -28.2510   48.6572 H   0  0
   -3.0475  -27.9685   48.6980 H   0  0
   -1.2459  -28.8763   50.9687 H   0  0
   -2.7092  -29.6588   50.3177 H   0  0
   -5.0497  -26.4858   52.4888 H   0  0
   -7.2855  -27.2829   53.2119 H   0  0
   -7.8839  -31.3536   55.3677 H   0  0
   -9.6303  -31.5259   53.0937 H   0  0
   -8.2981  -31.3311   51.6519 H   0  0
   -8.9854  -29.1492   51.3124 H   0  0
  -10.3161  -29.3435   52.7550 H   0  0
   -6.0932  -31.3599   52.4232 H   0  0
   -3.8744  -30.5559   51.6242 H   0  0
   -2.0301  -26.7976   52.9683 H   0  0
   -3.2972  -25.9422   52.0762 H   0  0
   -1.2321  -25.1015   51.1930 H   0  0
   -0.5024  -26.7016   51.1324 H   0  0
  1  2  1  0
  2  3  1  0
  2  4  1  0
  4  5  2  0
  4  9  1  0
  5  6  1  0
  6  7  2  0
  7  8  1  0
  8  9  2  0
  9 10  1  0
 10 11  1  0
 10 20  1  0
 10 36  1  0
 11 12  2  0
 11 13  1  0
 13 14  1  0
 14 15  2  0
 14 18  1  0
 15 16  1  0
 16 17  2  0
 17 18  1  0
 18 19  1  0
 20 21  1  0
 21 22  1  0
 22 23  1  0
 22 35  1  0
 23 24  2  0
 23 34  1  0
 24 25  1  0
 25 26  2  0
 26 27  1  0
 26 33  1  0
 27 28  1  0
 27 31  1  0
 27 32  1  0
 28 29  2  0
 28 30  1  0
 31 32  1  0
 33 34  2  0
 35 36  1  0
  1 37  1  0
  1 38  1  0
  1 39  1  0
  2 40  1  0
  3 41  1  0
  3 42  1  0
  3 43  1  0
  5 44  1  0
  6 45  1  0
  7 46  1  0
  8 47  1  0
 13 48  1  0
 16 49  1  0
 17 50  1  0
 19 51  1  0
 19 52  1  0
 19 53  1  0
 20 54  1  0
 20 55  1  0
 21 56  1  0
 21 57  1  0
 24 58  1  0
 25 59  1  0
 30 60  1  0
 31 61  1  0
 31 62  1  0
 32 63  1  0
 32 64  1  0
 33 65  1  0
 34 66  1  0
 35 67  1  0
 35 68  1  0
 36 69  1  0
 36 70  1  0
M  END
> <Name>
Molecule

> <AbsoluteEnergy>
60.4879

> <Clean Energy>
216.53

> <ConfNumber>
62

> <MOL_NUMBER>
7

> <RelativeEnergy>
16.7149

> <POSE_NUMBER>
54

> <LibDockScore>
110.0425

> <HotSpots>
-2.93,-26.32,45.98,A,15,1
1.87,-25.32,48.38,A,30,7
-9.33,-29.92,51.19,A,52,32

$$$$
Molecule
  SciTegic05072616053D

 70 74  0  0  0  0            999 V2000
   -6.8800  -24.9165   50.8960 C   0  0  0  1  0  0
   -5.3966  -25.1361   51.2569 C   0  0  0  1  0  0
   -5.2481  -25.4296   52.7646 C   0  0  0  1  0  0
   -4.5124  -23.9879   50.8082 C   0  0  0  1  0  0
   -5.1547  -22.7351   50.6904 C   0  0  0  1  0  0
   -4.4462  -21.5830   50.3331 C   0  0  0  1  0  0
   -3.0723  -21.6636   50.0913 C   0  0  0  1  0  0
   -2.4146  -22.8978   50.1899 C   0  0  0  1  0  0
   -3.1059  -24.0954   50.5154 C   0  0  0  1  0  0
   -2.3422  -25.4321   50.5584 C   0  0  0  1  0  0
   -0.9393  -25.4007   49.9059 C   0  0  0  1  0  0
    0.0475  -25.5201   50.5967 O   0  0  0  1  0  0
   -0.7851  -25.2519   48.5368 N   0  0  0  1  0  0
    0.5149  -25.0829   47.8423 C   0  0  0  1  0  0
    1.7018  -24.7409   48.4285 N   0  0  0  1  0  0
    2.6278  -24.6968   47.4499 C   0  0  0  1  0  0
    2.0066  -25.0112   46.2498 C   0  0  0  1  0  0
    0.7004  -25.2538   46.4955 N   0  0  0  1  0  0
   -0.3184  -25.6336   45.4992 C   0  0  0  1  0  0
   -2.1162  -25.8030   52.0818 C   0  0  0  1  0  0
   -1.8549  -27.2983   52.3485 C   0  0  0  1  0  0
   -2.9124  -28.0645   51.6521 N   0  0  0  1  0  0
   -4.0207  -28.6301   52.2829 C   0  0  0  1  0  0
   -4.0301  -28.8135   53.6864 C   0  0  0  1  0  0
   -5.2005  -29.2077   54.3509 C   0  0  0  1  0  0
   -6.3795  -29.4382   53.6229 C   0  0  0  1  0  0
   -7.6833  -29.7019   54.3424 C   0  0  0  1  0  0
   -8.6218  -28.4864   54.2931 C   0  0  0  1  0  0
   -8.3719  -27.5797   53.5273 O   0  0  0  1  0  0
   -9.6954  -28.4264   55.0837 O   0  0  0  1  0  0
   -7.7089  -30.5625   55.5977 C   0  0  0  1  0  0
   -8.2415  -31.1196   54.2979 C   0  0  0  1  0  0
   -6.3491  -29.3851   52.2196 C   0  0  0  1  0  0
   -5.1774  -28.9927   51.5540 C   0  0  0  1  0  0
   -2.7476  -27.9932   50.1815 C   0  0  0  1  0  0
   -3.1152  -26.5603   49.7591 C   0  0  0  1  0  0
   -7.2662  -24.0743   51.4702 H   0  0
   -7.4456  -25.8132   51.1493 H   0  0
   -6.9761  -24.7099   49.8301 H   0  0
   -5.0483  -26.0097   50.7058 H   0  0
   -5.8189  -26.3247   53.0120 H   0  0
   -5.6395  -24.5858   53.3328 H   0  0
   -4.1976  -25.5835   53.0112 H   0  0
   -6.2254  -22.6647   50.8820 H   0  0
   -4.9631  -20.6275   50.2438 H   0  0
   -2.5120  -20.7670   49.8261 H   0  0
   -1.3401  -22.9397   50.0114 H   0  0
   -1.6701  -25.2595   47.9354 H   0  0
    3.6829  -24.4557   47.5792 H   0  0
    2.4904  -25.0550   45.2740 H   0  0
   -1.0874  -24.8780   45.6601 H   0  0
   -0.7201  -26.5538   45.9234 H   0  0
    0.0098  -25.7243   44.4638 H   0  0
   -1.2708  -25.2287   52.4606 H   0  0
   -2.9928  -25.4957   52.6521 H   0  0
   -0.8779  -27.5772   51.9539 H   0  0
   -1.9022  -27.4958   53.4194 H   0  0
   -3.1169  -28.6464   54.2575 H   0  0
   -5.1953  -29.3354   55.4334 H   0  0
   -9.3115  -28.5456   56.0537 H   0  0
   -8.5153  -30.2671   56.2689 H   0  0
   -6.7206  -30.9591   55.8303 H   0  0
   -7.5365  -31.8124   53.8384 H   0  0
   -9.3313  -31.1188   54.2763 H   0  0
   -7.2376  -29.6493   51.6462 H   0  0
   -5.1586  -28.9671   50.4645 H   0  0
   -3.4187  -28.7032   49.6981 H   0  0
   -1.7115  -28.2016   49.9147 H   0  0
   -2.9072  -26.4449   48.6954 H   0  0
   -4.1870  -26.4185   49.8978 H   0  0
  1  2  1  0
  2  3  1  0
  2  4  1  0
  4  5  2  0
  4  9  1  0
  5  6  1  0
  6  7  2  0
  7  8  1  0
  8  9  2  0
  9 10  1  0
 10 11  1  0
 10 20  1  0
 10 36  1  0
 11 12  2  0
 11 13  1  0
 13 14  1  0
 14 15  2  0
 14 18  1  0
 15 16  1  0
 16 17  2  0
 17 18  1  0
 18 19  1  0
 20 21  1  0
 21 22  1  0
 22 23  1  0
 22 35  1  0
 23 24  2  0
 23 34  1  0
 24 25  1  0
 25 26  2  0
 26 27  1  0
 26 33  1  0
 27 28  1  0
 27 31  1  0
 27 32  1  0
 28 29  2  0
 28 30  1  0
 31 32  1  0
 33 34  2  0
 35 36  1  0
  1 37  1  0
  1 38  1  0
  1 39  1  0
  2 40  1  0
  3 41  1  0
  3 42  1  0
  3 43  1  0
  5 44  1  0
  6 45  1  0
  7 46  1  0
  8 47  1  0
 13 48  1  0
 16 49  1  0
 17 50  1  0
 19 51  1  0
 19 52  1  0
 19 53  1  0
 20 54  1  0
 20 55  1  0
 21 56  1  0
 21 57  1  0
 24 58  1  0
 25 59  1  0
 30 60  1  0
 31 61  1  0
 31 62  1  0
 32 63  1  0
 32 64  1  0
 33 65  1  0
 34 66  1  0
 35 67  1  0
 35 68  1  0
 36 69  1  0
 36 70  1  0
M  END
> <Name>
Molecule

> <AbsoluteEnergy>
53.1065

> <Clean Energy>
216.53

> <ConfNumber>
20

> <MOL_NUMBER>
7

> <RelativeEnergy>
9.33351

> <POSE_NUMBER>
55

> <LibDockScore>
110.0081

> <HotSpots>
-5.13,-23.32,51.38,A,54,5
1.87,-24.92,46.78,A,22,17
-6.53,-30.72,51.78,A,56,33

$$$$
Molecule
  SciTegic05072616053D

 70 74  0  0  0  0            999 V2000
    1.9986  -25.6196   46.8519 C   0  0  0  1  0  0
    1.3787  -24.8752   48.0507 C   0  0  0  1  0  0
    2.4588  -24.1733   48.8966 C   0  0  0  1  0  0
    0.2920  -23.9066   47.6341 C   0  0  0  1  0  0
    0.6737  -22.9073   46.7094 C   0  0  0  1  0  0
   -0.2490  -21.9829   46.2104 C   0  0  0  1  0  0
   -1.5802  -22.0478   46.6212 C   0  0  0  1  0  0
   -1.9793  -23.0205   47.5441 C   0  0  0  1  0  0
   -1.0620  -23.9475   48.1102 C   0  0  0  1  0  0
   -1.5638  -24.9342   49.1792 C   0  0  0  1  0  0
   -3.0816  -24.7935   49.4695 C   0  0  0  1  0  0
   -3.8649  -25.5238   48.9146 O   0  0  0  1  0  0
   -3.5421  -23.8601   50.3827 N   0  0  0  1  0  0
   -4.9154  -23.3068   50.5364 C   0  0  0  1  0  0
   -5.4043  -23.0357   51.7845 N   0  0  0  1  0  0
   -6.6752  -22.6215   51.6428 C   0  0  0  1  0  0
   -6.9734  -22.6046   50.2911 C   0  0  0  1  0  0
   -5.8796  -22.9900   49.5953 N   0  0  0  1  0  0
   -5.8259  -23.0160   48.1212 C   0  0  0  1  0  0
   -0.8711  -24.7362   50.5820 C   0  0  0  1  0  0
   -1.3686  -25.7204   51.6731 C   0  0  0  1  0  0
   -1.8912  -26.9817   51.0692 N   0  0  0  1  0  0
   -3.0355  -27.6282   51.5265 C   0  0  0  1  0  0
   -3.8648  -27.0126   52.4915 C   0  0  0  1  0  0
   -5.0651  -27.6095   52.8936 C   0  0  0  1  0  0
   -5.4530  -28.8466   52.3534 C   0  0  0  1  0  0
   -6.7741  -29.4553   52.7559 C   0  0  0  1  0  0
   -6.8807  -29.7342   54.2482 C   0  0  0  1  0  0
   -6.5898  -30.8301   54.6680 O   0  0  0  1  0  0
   -7.2971  -28.7625   55.0597 O   0  0  0  1  0  0
   -8.0254  -28.9788   52.0359 C   0  0  0  1  0  0
   -7.5000  -30.3694   51.7819 C   0  0  0  1  0  0
   -4.6121  -29.4984   51.4339 C   0  0  0  1  0  0
   -3.4110  -28.8947   51.0226 C   0  0  0  1  0  0
   -1.1476  -27.4369   49.8614 C   0  0  0  1  0  0
   -1.3081  -26.4146   48.7065 C   0  0  0  1  0  0
    2.7049  -26.3595   47.2283 H   0  0
    2.5350  -24.8996   46.2339 H   0  0
    1.2208  -26.1093   46.2659 H   0  0
    0.9022  -25.6320   48.6738 H   0  0
    2.9917  -23.4643   48.2630 H   0  0
    3.1616  -24.9242   49.2575 H   0  0
    2.0025  -23.6528   49.7387 H   0  0
    1.7109  -22.8565   46.3781 H   0  0
    0.0702  -21.2161   45.5045 H   0  0
   -2.3089  -21.3414   46.2236 H   0  0
   -3.0276  -23.0692   47.8387 H   0  0
   -2.8126  -23.4862   51.0704 H   0  0
   -7.3528  -22.3468   52.4512 H   0  0
   -7.9340  -22.3259   49.8578 H   0  0
   -5.4891  -24.0387   47.9519 H   0  0
   -4.9428  -22.4025   47.9429 H   0  0
   -6.7124  -22.7231   47.5587 H   0  0
   -1.0483  -23.7161   50.9227 H   0  0
    0.2055  -24.8584   50.4637 H   0  0
   -0.5434  -25.9600   52.3438 H   0  0
   -2.1612  -25.2459   52.2517 H   0  0
   -3.5654  -26.0600   52.9285 H   0  0
   -5.7002  -27.1133   53.6275 H   0  0
   -8.2327  -28.4727   54.6814 H   0  0
   -7.7826  -28.3011   51.2175 H   0  0
   -8.8941  -28.9906   52.6942 H   0  0
   -8.0887  -31.1237   52.3040 H   0  0
   -6.9760  -30.4339   50.8283 H   0  0
   -4.8925  -30.4748   51.0388 H   0  0
   -2.7645  -29.4068   50.3100 H   0  0
   -1.5344  -28.4046   49.5421 H   0  0
   -0.0906  -27.5406   50.1065 H   0  0
   -0.4080  -26.4374   48.0922 H   0  0
   -2.1381  -26.7294   48.0739 H   0  0
  1  2  1  0
  2  3  1  0
  2  4  1  0
  4  5  2  0
  4  9  1  0
  5  6  1  0
  6  7  2  0
  7  8  1  0
  8  9  2  0
  9 10  1  0
 10 11  1  0
 10 20  1  0
 10 36  1  0
 11 12  2  0
 11 13  1  0
 13 14  1  0
 14 15  2  0
 14 18  1  0
 15 16  1  0
 16 17  2  0
 17 18  1  0
 18 19  1  0
 20 21  1  0
 21 22  1  0
 22 23  1  0
 22 35  1  0
 23 24  2  0
 23 34  1  0
 24 25  1  0
 25 26  2  0
 26 27  1  0
 26 33  1  0
 27 28  1  0
 27 31  1  0
 27 32  1  0
 28 29  2  0
 28 30  1  0
 31 32  1  0
 33 34  2  0
 35 36  1  0
  1 37  1  0
  1 38  1  0
  1 39  1  0
  2 40  1  0
  3 41  1  0
  3 42  1  0
  3 43  1  0
  5 44  1  0
  6 45  1  0
  7 46  1  0
  8 47  1  0
 13 48  1  0
 16 49  1  0
 17 50  1  0
 19 51  1  0
 19 52  1  0
 19 53  1  0
 20 54  1  0
 20 55  1  0
 21 56  1  0
 21 57  1  0
 24 58  1  0
 25 59  1  0
 30 60  1  0
 31 61  1  0
 31 62  1  0
 32 63  1  0
 32 64  1  0
 33 65  1  0
 34 66  1  0
 35 67  1  0
 35 68  1  0
 36 69  1  0
 36 70  1  0
M  END
> <Name>
Molecule

> <AbsoluteEnergy>
56.4218

> <Clean Energy>
216.53

> <ConfNumber>
40

> <MOL_NUMBER>
7

> <RelativeEnergy>
12.6488

> <POSE_NUMBER>
56

> <LibDockScore>
109.0264

> <HotSpots>
1.87,-24.92,46.78,A,22,1
2.67,-23.92,48.98,A,32,3
-5.93,-24.72,51.19,A,53,19

$$$$
Molecule
  SciTegic05072616053D

 70 74  0  0  0  0            999 V2000
   -0.0665  -26.7708   48.4390 C   0  0  0  1  0  0
    0.7433  -25.5886   47.8936 C   0  0  0  1  0  0
    0.0863  -24.9201   46.6700 C   0  0  0  1  0  0
    1.3529  -24.6251   48.9084 C   0  0  0  1  0  0
    2.5833  -24.0603   48.4887 C   0  0  0  1  0  0
    3.3099  -23.1746   49.2855 C   0  0  0  1  0  0
    2.8132  -22.8171   50.5353 C   0  0  0  1  0  0
    1.5923  -23.3430   50.9810 C   0  0  0  1  0  0
    0.8157  -24.2422   50.1961 C   0  0  0  1  0  0
   -0.5299  -24.7376   50.7709 C   0  0  0  1  0  0
   -1.6335  -24.7583   49.7014 C   0  0  0  1  0  0
   -2.3261  -25.7427   49.5789 O   0  0  0  1  0  0
   -1.8532  -23.6515   48.8922 N   0  0  0  1  0  0
   -3.0412  -23.4613   48.0213 C   0  0  0  1  0  0
   -4.1992  -24.1895   48.0632 N   0  0  0  1  0  0
   -5.0067  -23.7064   47.0971 C   0  0  0  1  0  0
   -4.3440  -22.6668   46.4598 C   0  0  0  1  0  0
   -3.1340  -22.5107   47.0396 N   0  0  0  1  0  0
   -2.1146  -21.5126   46.6708 C   0  0  0  1  0  0
   -0.3269  -26.1182   51.5176 C   0  0  0  1  0  0
   -1.0678  -26.2919   52.8667 C   0  0  0  1  0  0
   -2.4460  -25.7659   52.7302 N   0  0  0  1  0  0
   -3.5732  -26.5774   52.8290 C   0  0  0  1  0  0
   -4.8245  -26.0962   52.3880 C   0  0  0  1  0  0
   -5.9696  -26.9084   52.4427 C   0  0  0  1  0  0
   -5.8987  -28.2208   52.9492 C   0  0  0  1  0  0
   -7.1378  -29.1102   52.9521 C   0  0  0  1  0  0
   -8.2276  -28.7174   53.9571 C   0  0  0  1  0  0
   -8.7242  -27.6181   53.8801 O   0  0  0  1  0  0
   -8.6434  -29.5783   54.8951 O   0  0  0  1  0  0
   -7.0132  -30.5891   52.5999 C   0  0  0  1  0  0
   -7.5951  -29.6303   51.5953 C   0  0  0  1  0  0
   -4.6577  -28.6966   53.4279 C   0  0  0  1  0  0
   -3.5023  -27.8902   53.3523 C   0  0  0  1  0  0
   -2.5155  -24.3070   52.4185 C   0  0  0  1  0  0
   -1.1670  -23.7821   51.8467 C   0  0  0  1  0  0
   -0.1752  -27.5010   47.6370 H   0  0
   -1.0560  -26.4026   48.7101 H   0  0
    0.4256  -27.2193   49.3020 H   0  0
    1.6494  -26.0684   47.5235 H   0  0
   -0.9054  -24.5787   46.9667 H   0  0
   -0.0246  -25.6771   45.8936 H   0  0
    0.6872  -24.0855   46.3089 H   0  0
    2.9763  -24.3275   47.5078 H   0  0
    4.2571  -22.7668   48.9324 H   0  0
    3.3733  -22.1283   51.1677 H   0  0
    1.2239  -23.0527   51.9649 H   0  0
   -1.1126  -22.8793   48.8964 H   0  0
   -6.0063  -24.0694   46.8583 H   0  0
   -4.7341  -22.0759   45.6311 H   0  0
   -1.2420  -22.1375   46.4806 H   0  0
   -1.9201  -21.0222   47.6246 H   0  0
   -2.3607  -20.8289   45.8584 H   0  0
    0.7393  -26.2643   51.6910 H   0  0
   -0.6387  -26.9209   50.8494 H   0  0
   -0.5428  -25.7393   53.6459 H   0  0
   -1.1058  -27.3494   53.1283 H   0  0
   -4.9036  -25.0808   51.9997 H   0  0
   -6.9240  -26.5184   52.0890 H   0  0
   -7.7651  -29.8478   55.4036 H   0  0
   -7.7873  -31.1819   53.0872 H   0  0
   -5.9848  -30.8551   52.3553 H   0  0
   -6.8792  -29.3841   50.8111 H   0  0
   -8.6810  -29.7096   51.5439 H   0  0
   -4.5921  -29.6954   53.8594 H   0  0
   -2.5465  -28.2821   53.7001 H   0  0
   -2.7570  -23.7567   53.3279 H   0  0
   -3.3057  -24.1342   51.6879 H   0  0
   -1.3322  -22.8028   51.3976 H   0  0
   -0.4618  -23.6543   52.6680 H   0  0
  1  2  1  0
  2  3  1  0
  2  4  1  0
  4  5  2  0
  4  9  1  0
  5  6  1  0
  6  7  2  0
  7  8  1  0
  8  9  2  0
  9 10  1  0
 10 11  1  0
 10 20  1  0
 10 36  1  0
 11 12  2  0
 11 13  1  0
 13 14  1  0
 14 15  2  0
 14 18  1  0
 15 16  1  0
 16 17  2  0
 17 18  1  0
 18 19  1  0
 20 21  1  0
 21 22  1  0
 22 23  1  0
 22 35  1  0
 23 24  2  0
 23 34  1  0
 24 25  1  0
 25 26  2  0
 26 27  1  0
 26 33  1  0
 27 28  1  0
 27 31  1  0
 27 32  1  0
 28 29  2  0
 28 30  1  0
 31 32  1  0
 33 34  2  0
 35 36  1  0
  1 37  1  0
  1 38  1  0
  1 39  1  0
  2 40  1  0
  3 41  1  0
  3 42  1  0
  3 43  1  0
  5 44  1  0
  6 45  1  0
  7 46  1  0
  8 47  1  0
 13 48  1  0
 16 49  1  0
 17 50  1  0
 19 51  1  0
 19 52  1  0
 19 53  1  0
 20 54  1  0
 20 55  1  0
 21 56  1  0
 21 57  1  0
 24 58  1  0
 25 59  1  0
 30 60  1  0
 31 61  1  0
 31 62  1  0
 32 63  1  0
 32 64  1  0
 33 65  1  0
 34 66  1  0
 35 67  1  0
 35 68  1  0
 36 69  1  0
 36 70  1  0
M  END
> <Name>
Molecule

> <AbsoluteEnergy>
60.4879

> <Clean Energy>
216.53

> <ConfNumber>
62

> <MOL_NUMBER>
7

> <RelativeEnergy>
16.7149

> <POSE_NUMBER>
57

> <LibDockScore>
108.9863

> <HotSpots>
2.67,-23.92,48.98,A,32,5
-4.53,-24.52,46.19,A,17,16
-6.53,-30.72,51.78,A,56,32

$$$$
Molecule
  SciTegic05072616053D

 70 74  0  0  0  0            999 V2000
   -3.8526  -25.4497   46.3438 C   0  0  0  1  0  0
   -3.8464  -23.9279   46.5872 C   0  0  0  1  0  0
   -5.0695  -23.4108   47.3607 C   0  0  0  1  0  0
   -2.4694  -23.3729   46.9404 C   0  0  0  1  0  0
   -2.0312  -22.3538   46.0558 C   0  0  0  1  0  0
   -0.7928  -21.7261   46.1958 C   0  0  0  1  0  0
    0.0536  -22.1037   47.2333 C   0  0  0  1  0  0
   -0.3451  -23.1048   48.1253 C   0  0  0  1  0  0
   -1.6008  -23.7665   48.0253 C   0  0  0  1  0  0
   -1.9211  -24.8455   49.0809 C   0  0  0  1  0  0
   -3.3159  -24.6639   49.6998 C   0  0  0  1  0  0
   -4.0387  -25.6240   49.8040 O   0  0  0  1  0  0
   -3.7452  -23.4277   50.1458 N   0  0  0  1  0  0
   -5.1564  -22.9893   50.3338 C   0  0  0  1  0  0
   -5.5312  -21.6987   50.0819 N   0  0  0  1  0  0
   -6.8589  -21.6161   50.2869 C   0  0  0  1  0  0
   -7.3110  -22.8597   50.6972 C   0  0  0  1  0  0
   -6.2584  -23.7029   50.7679 N   0  0  0  1  0  0
   -6.3541  -25.0885   51.2676 C   0  0  0  1  0  0
   -0.9791  -24.8047   50.3461 C   0  0  0  1  0  0
   -1.3161  -25.8644   51.4264 C   0  0  0  1  0  0
   -1.8255  -27.1143   50.7997 N   0  0  0  1  0  0
   -2.8384  -27.8823   51.3711 C   0  0  0  1  0  0
   -3.4438  -28.9435   50.6589 C   0  0  0  1  0  0
   -4.5425  -29.6304   51.1967 C   0  0  0  1  0  0
   -5.0513  -29.2780   52.4589 C   0  0  0  1  0  0
   -6.2749  -29.9724   53.0030 C   0  0  0  1  0  0
   -5.9594  -30.9612   54.1180 C   0  0  0  1  0  0
   -6.2464  -30.6816   55.2586 O   0  0  0  1  0  0
   -5.3730  -32.1196   53.8159 O   0  0  0  1  0  0
   -7.5987  -29.2179   53.0321 C   0  0  0  1  0  0
   -7.3935  -30.3321   52.0358 C   0  0  0  1  0  0
   -4.4175  -28.2698   53.2037 C   0  0  0  1  0  0
   -3.3125  -27.5887   52.6712 C   0  0  0  1  0  0
   -1.2393  -27.3716   49.4618 C   0  0  0  1  0  0
   -1.7140  -26.2812   48.4713 C   0  0  0  1  0  0
   -4.7627  -25.6887   45.7936 H   0  0
   -3.9032  -25.9360   47.3180 H   0  0
   -2.9686  -25.7714   45.7932 H   0  0
   -4.0175  -23.4480   45.6236 H   0  0
   -5.0974  -23.9353   48.3158 H   0  0
   -5.9568  -23.6879   46.7915 H   0  0
   -5.0234  -22.3320   47.5097 H   0  0
   -2.6849  -22.0505   45.2380 H   0  0
   -0.4908  -20.9456   45.4974 H   0  0
    1.0239  -21.6212   47.3507 H   0  0
    0.3335  -23.3894   48.9294 H   0  0
   -2.9852  -22.7119   50.3802 H   0  0
   -7.4722  -20.7250   50.1532 H   0  0
   -8.3457  -23.1155   50.9254 H   0  0
   -5.6081  -25.0709   52.0621 H   0  0
   -5.8784  -25.6330   50.4519 H   0  0
   -7.3320  -25.4678   51.5642 H   0  0
   -1.0381  -23.8143   50.7975 H   0  0
    0.0512  -24.9511   50.0219 H   0  0
   -0.4183  -26.0910   52.0014 H   0  0
   -2.0748  -25.4654   52.0997 H   0  0
   -3.0530  -29.2305   49.6827 H   0  0
   -5.0039  -30.4413   50.6331 H   0  0
   -4.4910  -31.8537   53.3121 H   0  0
   -7.5102  -28.2376   52.5638 H   0  0
   -8.2204  -29.5355   53.8692 H   0  0
   -7.9075  -31.2439   52.3400 H   0  0
   -7.1959  -29.9466   51.0356 H   0  0
   -4.7851  -28.0159   54.1979 H   0  0
   -2.8133  -26.8241   53.2664 H   0  0
   -1.5609  -28.3501   49.1051 H   0  0
   -0.1517  -27.3499   49.5313 H   0  0
   -0.9897  -26.2135   47.6596 H   0  0
   -2.6528  -26.6067   48.0233 H   0  0
  1  2  1  0
  2  3  1  0
  2  4  1  0
  4  5  2  0
  4  9  1  0
  5  6  1  0
  6  7  2  0
  7  8  1  0
  8  9  2  0
  9 10  1  0
 10 11  1  0
 10 20  1  0
 10 36  1  0
 11 12  2  0
 11 13  1  0
 13 14  1  0
 14 15  2  0
 14 18  1  0
 15 16  1  0
 16 17  2  0
 17 18  1  0
 18 19  1  0
 20 21  1  0
 21 22  1  0
 22 23  1  0
 22 35  1  0
 23 24  2  0
 23 34  1  0
 24 25  1  0
 25 26  2  0
 26 27  1  0
 26 33  1  0
 27 28  1  0
 27 31  1  0
 27 32  1  0
 28 29  2  0
 28 30  1  0
 31 32  1  0
 33 34  2  0
 35 36  1  0
  1 37  1  0
  1 38  1  0
  1 39  1  0
  2 40  1  0
  3 41  1  0
  3 42  1  0
  3 43  1  0
  5 44  1  0
  6 45  1  0
  7 46  1  0
  8 47  1  0
 13 48  1  0
 16 49  1  0
 17 50  1  0
 19 51  1  0
 19 52  1  0
 19 53  1  0
 20 54  1  0
 20 55  1  0
 21 56  1  0
 21 57  1  0
 24 58  1  0
 25 59  1  0
 30 60  1  0
 31 61  1  0
 31 62  1  0
 32 63  1  0
 32 64  1  0
 33 65  1  0
 34 66  1  0
 35 67  1  0
 35 68  1  0
 36 69  1  0
 36 70  1  0
M  END
> <Name>
Molecule

> <AbsoluteEnergy>
60.3701

> <Clean Energy>
216.53

> <ConfNumber>
59

> <MOL_NUMBER>
7

> <RelativeEnergy>
16.5971

> <POSE_NUMBER>
58

> <LibDockScore>
108.7682

> <HotSpots>
-2.93,-26.32,45.98,A,15,1
-2.53,-22.32,48.19,A,29,8
-6.33,-26.32,51.98,A,57,19

$$$$
Molecule
  SciTegic05072616053D

 70 74  0  0  0  0            999 V2000
   -2.8085  -21.6209   49.5408 C   0  0  0  1  0  0
   -2.1440  -22.3069   48.3318 C   0  0  0  1  0  0
   -1.3572  -21.3254   47.4449 C   0  0  0  1  0  0
   -3.1231  -23.1371   47.5345 C   0  0  0  1  0  0
   -3.8604  -22.4713   46.5302 C   0  0  0  1  0  0
   -4.8119  -23.1490   45.7594 C   0  0  0  1  0  0
   -5.0381  -24.5096   45.9744 C   0  0  0  1  0  0
   -4.2960  -25.1935   46.9438 C   0  0  0  1  0  0
   -3.3255  -24.5387   47.7459 C   0  0  0  1  0  0
   -2.5401  -25.3276   48.8053 C   0  0  0  1  0  0
   -1.0307  -25.1721   48.5567 C   0  0  0  1  0  0
   -0.6258  -25.2733   47.4197 O   0  0  0  1  0  0
   -0.1256  -24.9139   49.5662 N   0  0  0  1  0  0
    1.2880  -24.5249   49.3364 C   0  0  0  1  0  0
    2.0373  -23.8459   50.2560 N   0  0  0  1  0  0
    3.2190  -23.5615   49.6725 C   0  0  0  1  0  0
    3.2235  -24.1229   48.4047 C   0  0  0  1  0  0
    2.0545  -24.7766   48.2185 N   0  0  0  1  0  0
    1.7309  -25.6196   47.0496 C   0  0  0  1  0  0
   -3.1039  -24.9354   50.2216 C   0  0  0  1  0  0
   -2.6858  -25.8149   51.4216 C   0  0  0  1  0  0
   -2.7356  -27.2652   51.1045 N   0  0  0  1  0  0
   -3.3392  -28.1913   51.9406 C   0  0  0  1  0  0
   -3.0477  -29.5656   51.7982 C   0  0  0  1  0  0
   -3.6150  -30.5051   52.6713 C   0  0  0  1  0  0
   -4.4731  -30.0844   53.7018 C   0  0  0  1  0  0
   -5.0306  -31.0883   54.6847 C   0  0  0  1  0  0
   -3.9452  -31.6927   55.5794 C   0  0  0  1  0  0
   -4.2488  -32.5144   56.4144 O   0  0  0  1  0  0
   -2.6816  -31.2990   55.4147 O   0  0  0  1  0  0
   -6.2018  -31.9588   54.2580 C   0  0  0  1  0  0
   -6.4210  -30.8528   55.2591 C   0  0  0  1  0  0
   -4.7948  -28.7235   53.8296 C   0  0  0  1  0  0
   -4.2424  -27.7828   52.9503 C   0  0  0  1  0  0
   -2.0932  -27.6599   49.8260 C   0  0  0  1  0  0
   -2.7427  -26.8718   48.6845 C   0  0  0  1  0  0
   -3.4800  -20.8498   49.1632 H   0  0
   -2.0252  -21.1431   50.1292 H   0  0
   -3.3566  -22.3420   50.1472 H   0  0
   -1.4088  -22.9975   48.7449 H   0  0
   -0.5939  -20.8516   48.0621 H   0  0
   -2.0486  -20.5583   47.0961 H   0  0
   -0.9004  -21.8413   46.6003 H   0  0
   -3.6850  -21.4103   46.3523 H   0  0
   -5.3748  -22.6158   44.9933 H   0  0
   -5.7906  -25.0378   45.3889 H   0  0
   -4.4684  -26.2602   47.0870 H   0  0
   -0.4643  -24.9995   50.5776 H   0  0
    4.0311  -22.9888   50.1204 H   0  0
    4.0338  -24.0496   47.6794 H   0  0
    0.7755  -25.1975   46.7378 H   0  0
    1.4807  -26.5658   47.5294 H   0  0
    2.4741  -25.6958   46.2559 H   0  0
   -2.8103  -23.9075   50.4344 H   0  0
   -4.1926  -24.9285   50.1680 H   0  0
   -1.6710  -25.5517   51.7200 H   0  0
   -3.3503  -25.6127   52.2616 H   0  0
   -2.3779  -29.8981   51.0051 H   0  0
   -3.3898  -31.5647   52.5503 H   0  0
   -2.7021  -30.2556   55.5304 H   0  0
   -6.1698  -32.9365   54.7388 H   0  0
   -6.5644  -31.6833   53.2677 H   0  0
   -6.9001  -29.9863   54.8034 H   0  0
   -6.5038  -31.2394   56.2749 H   0  0
   -5.4764  -28.3979   54.6154 H   0  0
   -4.5100  -26.7304   53.0446 H   0  0
   -2.2357  -28.7275   49.6587 H   0  0
   -1.0281  -27.4317   49.8666 H   0  0
   -2.3224  -27.2118   47.7380 H   0  0
   -3.8108  -27.0885   48.6698 H   0  0
  1  2  1  0
  2  3  1  0
  2  4  1  0
  4  5  2  0
  4  9  1  0
  5  6  1  0
  6  7  2  0
  7  8  1  0
  8  9  2  0
  9 10  1  0
 10 11  1  0
 10 20  1  0
 10 36  1  0
 11 12  2  0
 11 13  1  0
 13 14  1  0
 14 15  2  0
 14 18  1  0
 15 16  1  0
 16 17  2  0
 17 18  1  0
 18 19  1  0
 20 21  1  0
 21 22  1  0
 22 23  1  0
 22 35  1  0
 23 24  2  0
 23 34  1  0
 24 25  1  0
 25 26  2  0
 26 27  1  0
 26 33  1  0
 27 28  1  0
 27 31  1  0
 27 32  1  0
 28 29  2  0
 28 30  1  0
 31 32  1  0
 33 34  2  0
 35 36  1  0
  1 37  1  0
  1 38  1  0
  1 39  1  0
  2 40  1  0
  3 41  1  0
  3 42  1  0
  3 43  1  0
  5 44  1  0
  6 45  1  0
  7 46  1  0
  8 47  1  0
 13 48  1  0
 16 49  1  0
 17 50  1  0
 19 51  1  0
 19 52  1  0
 19 53  1  0
 20 54  1  0
 20 55  1  0
 21 56  1  0
 21 57  1  0
 24 58  1  0
 25 59  1  0
 30 60  1  0
 31 61  1  0
 31 62  1  0
 32 63  1  0
 32 64  1  0
 33 65  1  0
 34 66  1  0
 35 67  1  0
 35 68  1  0
 36 69  1  0
 36 70  1  0
M  END
> <Name>
Molecule

> <AbsoluteEnergy>
56.0339

> <Clean Energy>
216.53

> <ConfNumber>
37

> <MOL_NUMBER>
7

> <RelativeEnergy>
12.2609

> <POSE_NUMBER>
59

> <LibDockScore>
108.3976

> <HotSpots>
-4.53,-24.52,46.19,A,17,8
2.67,-22.92,49.98,A,39,16
2.67,-23.92,48.98,A,32,17

$$$$
Molecule
  SciTegic05072616053D

 70 74  0  0  0  0            999 V2000
   -4.7784  -30.1938   56.7748 C   0  0  0  1  0  0
   -3.5743  -30.7146   55.9700 C   0  0  0  1  0  0
   -2.4312  -29.6960   55.7741 C   0  0  0  1  0  0
   -3.8534  -31.6074   54.7625 C   0  0  0  1  0  0
   -3.3363  -32.9201   54.9002 C   0  0  0  1  0  0
   -3.5611  -33.9148   53.9477 C   0  0  0  1  0  0
   -4.3062  -33.6156   52.8113 C   0  0  0  1  0  0
   -4.7939  -32.3177   52.6190 C   0  0  0  1  0  0
   -4.5643  -31.2656   53.5509 C   0  0  0  1  0  0
   -5.0923  -29.8527   53.2076 C   0  0  0  1  0  0
   -6.4670  -29.5869   53.8505 C   0  0  0  1  0  0
   -6.9994  -28.5296   53.6175 O   0  0  0  1  0  0
   -7.0858  -30.5196   54.6759 N   0  0  0  1  0  0
   -8.2799  -30.3588   55.5616 C   0  0  0  1  0  0
   -8.8176  -31.4439   56.2035 N   0  0  0  1  0  0
   -9.8686  -31.0150   56.9272 C   0  0  0  1  0  0
   -9.9864  -29.6484   56.7424 C   0  0  0  1  0  0
   -9.0060  -29.2318   55.9061 N   0  0  0  1  0  0
   -8.8180  -27.8238   55.5138 C   0  0  0  1  0  0
   -4.0263  -28.7813   53.6338 C   0  0  0  1  0  0
   -3.8538  -27.5548   52.7143 C   0  0  0  1  0  0
   -3.4404  -27.9691   51.3411 N   0  0  0  1  0  0
   -2.5628  -27.2016   50.5595 C   0  0  0  1  0  0
   -2.2541  -27.5623   49.2257 C   0  0  0  1  0  0
   -1.3769  -26.7785   48.4466 C   0  0  0  1  0  0
   -0.8007  -25.6090   48.9774 C   0  0  0  1  0  0
    0.1031  -24.7338   48.1269 C   0  0  0  1  0  0
    1.4988  -25.2973   47.8782 C   0  0  0  1  0  0
    1.6652  -26.1195   47.0051 O   0  0  0  1  0  0
    2.5232  -24.8558   48.6153 O   0  0  0  1  0  0
   -0.0241  -23.2226   48.2706 C   0  0  0  1  0  0
   -0.5097  -23.8961   47.0128 C   0  0  0  1  0  0
   -1.0838  -25.2505   50.3061 C   0  0  0  1  0  0
   -1.9555  -26.0337   51.0845 C   0  0  0  1  0  0
   -4.0431  -29.2548   50.8691 C   0  0  0  1  0  0
   -5.3291  -29.5894   51.6722 C   0  0  0  1  0  0
   -5.1550  -29.3142   56.2526 H   0  0
   -4.3995  -29.8749   57.7458 H   0  0
   -5.5551  -30.9508   56.8835 H   0  0
   -3.1759  -31.4489   56.6702 H   0  0
   -2.1042  -29.3881   56.7673 H   0  0
   -2.8597  -28.8274   55.2740 H   0  0
   -1.6055  -30.1149   55.1990 H   0  0
   -2.7419  -33.1611   55.7815 H   0  0
   -3.1569  -34.9167   54.0925 H   0  0
   -4.5097  -34.3905   52.0722 H   0  0
   -5.3724  -32.1038   51.7203 H   0  0
   -6.6432  -31.4938   54.6774 H   0  0
  -10.5137  -31.6352   57.5496 H   0  0
  -10.7451  -29.0109   57.1963 H   0  0
   -8.8020  -27.9165   54.4279 H   0  0
   -7.7755  -27.6729   55.7942 H   0  0
   -9.5111  -27.0772   55.9014 H   0  0
   -4.2778  -28.4257   54.6330 H   0  0
   -3.0595  -29.2760   53.7269 H   0  0
   -4.7978  -27.0129   52.6565 H   0  0
   -3.0949  -26.8939   53.1330 H   0  0
   -2.7005  -28.4584   48.7945 H   0  0
   -1.1436  -27.0810   47.4257 H   0  0
    2.2372  -25.0319   49.6101 H   0  0
    0.9333  -22.7247   48.1172 H   0  0
   -0.8505  -22.9526   48.9281 H   0  0
   -1.5959  -23.9852   46.9971 H   0  0
    0.1882  -23.7588   46.1869 H   0  0
   -0.6253  -24.3602   50.7364 H   0  0
   -2.1679  -25.7364   52.1114 H   0  0
   -4.2919  -29.1686   49.8114 H   0  0
   -3.3200  -30.0604   50.9965 H   0  0
   -5.7953  -30.4714   51.2331 H   0  0
   -6.0339  -28.7653   51.5615 H   0  0
  1  2  1  0
  2  3  1  0
  2  4  1  0
  4  5  2  0
  4  9  1  0
  5  6  1  0
  6  7  2  0
  7  8  1  0
  8  9  2  0
  9 10  1  0
 10 11  1  0
 10 20  1  0
 10 36  1  0
 11 12  2  0
 11 13  1  0
 13 14  1  0
 14 15  2  0
 14 18  1  0
 15 16  1  0
 16 17  2  0
 17 18  1  0
 18 19  1  0
 20 21  1  0
 21 22  1  0
 22 23  1  0
 22 35  1  0
 23 24  2  0
 23 34  1  0
 24 25  1  0
 25 26  2  0
 26 27  1  0
 26 33  1  0
 27 28  1  0
 27 31  1  0
 27 32  1  0
 28 29  2  0
 28 30  1  0
 31 32  1  0
 33 34  2  0
 35 36  1  0
  1 37  1  0
  1 38  1  0
  1 39  1  0
  2 40  1  0
  3 41  1  0
  3 42  1  0
  3 43  1  0
  5 44  1  0
  6 45  1  0
  7 46  1  0
  8 47  1  0
 13 48  1  0
 16 49  1  0
 17 50  1  0
 19 51  1  0
 19 52  1  0
 19 53  1  0
 20 54  1  0
 20 55  1  0
 21 56  1  0
 21 57  1  0
 24 58  1  0
 25 59  1  0
 30 60  1  0
 31 61  1  0
 31 62  1  0
 32 63  1  0
 32 64  1  0
 33 65  1  0
 34 66  1  0
 35 67  1  0
 35 68  1  0
 36 69  1  0
 36 70  1  0
M  END
> <Name>
Molecule

> <AbsoluteEnergy>
61.5468

> <Clean Energy>
216.53

> <ConfNumber>
73

> <MOL_NUMBER>
7

> <RelativeEnergy>
17.7738

> <POSE_NUMBER>
60

> <LibDockScore>
107.6175

> <HotSpots>
-3.93,-33.72,53.78,A,66,6
-11.53,-32.52,54.78,A,71,16
-2.53,-22.32,48.19,A,29,31

$$$$
Molecule
  SciTegic05072616053D

 70 74  0  0  0  0            999 V2000
   -0.8040  -23.9985   46.8692 C   0  0  0  1  0  0
   -0.1971  -25.0814   47.7812 C   0  0  0  1  0  0
    0.6499  -26.0857   46.9710 C   0  0  0  1  0  0
    0.5581  -24.4665   48.9394 C   0  0  0  1  0  0
    1.7315  -23.7490   48.6082 C   0  0  0  1  0  0
    2.5361  -23.1664   49.5936 C   0  0  0  1  0  0
    2.1745  -23.2875   50.9357 C   0  0  0  1  0  0
    1.0060  -23.9768   51.2870 C   0  0  0  1  0  0
    0.1512  -24.5698   50.3137 C   0  0  0  1  0  0
   -1.1417  -25.2734   50.7705 C   0  0  0  1  0  0
   -2.2967  -25.0626   49.7791 C   0  0  0  1  0  0
   -2.6294  -25.9577   49.0366 O   0  0  0  1  0  0
   -3.0161  -23.8877   49.7632 N   0  0  0  1  0  0
   -3.9028  -23.5530   48.6297 C   0  0  0  1  0  0
   -3.7681  -23.9955   47.3413 N   0  0  0  1  0  0
   -4.8718  -23.5911   46.6805 C   0  0  0  1  0  0
   -5.6493  -22.8372   47.5504 C   0  0  0  1  0  0
   -5.0098  -22.7574   48.7357 N   0  0  0  1  0  0
   -5.4565  -22.0017   49.9197 C   0  0  0  1  0  0
   -0.9051  -26.7935   51.0289 C   0  0  0  1  0  0
   -2.1624  -27.5933   51.4836 C   0  0  0  1  0  0
   -3.2538  -26.7875   52.1237 N   0  0  0  1  0  0
   -4.5390  -27.3102   52.2563 C   0  0  0  1  0  0
   -4.7522  -28.7052   52.3365 C   0  0  0  1  0  0
   -6.0430  -29.2232   52.5642 C   0  0  0  1  0  0
   -7.1460  -28.3571   52.6976 C   0  0  0  1  0  0
   -8.5257  -28.9094   53.0084 C   0  0  0  1  0  0
   -9.2675  -29.5261   51.8201 C   0  0  0  1  0  0
   -9.7616  -30.6279   51.9373 O   0  0  0  1  0  0
   -9.3795  -28.8478   50.6777 O   0  0  0  1  0  0
   -9.3799  -28.1876   54.0392 C   0  0  0  1  0  0
   -8.7518  -29.5136   54.3891 C   0  0  0  1  0  0
   -6.9479  -26.9693   52.5516 C   0  0  0  1  0  0
   -5.6616  -26.4524   52.3260 C   0  0  0  1  0  0
   -2.9780  -25.4061   52.6258 C   0  0  0  1  0  0
   -1.6286  -24.8138   52.1850 C   0  0  0  1  0  0
   -1.4305  -24.4829   46.1202 H   0  0
    0.0062  -23.4701   46.3667 H   0  0
   -1.3982  -23.2985   47.4566 H   0  0
   -1.0138  -25.6544   48.2204 H   0  0
    1.4499  -25.5426   46.4678 H   0  0
    0.0132  -26.5554   46.2213 H   0  0
    1.0713  -26.8441   47.6308 H   0  0
    2.0155  -23.6476   47.5607 H   0  0
    3.4384  -22.6221   49.3149 H   0  0
    2.8008  -22.8460   51.7109 H   0  0
    0.7421  -24.0622   52.3411 H   0  0
   -2.9314  -23.2071   50.5845 H   0  0
   -5.1126  -23.8171   45.6417 H   0  0
   -6.6133  -22.3862   47.3151 H   0  0
   -4.5709  -21.4134   50.1599 H   0  0
   -5.5037  -22.7807   50.6807 H   0  0
   -6.3704  -21.4159   49.8207 H   0  0
   -0.5170  -27.2456   50.1162 H   0  0
   -0.1310  -26.9022   51.7885 H   0  0
   -1.8486  -28.3661   52.1853 H   0  0
   -2.5778  -28.1091   50.6179 H   0  0
   -3.9098  -29.3872   52.2211 H   0  0
   -6.1888  -30.3009   52.6376 H   0  0
   -8.3907  -28.6220   50.4062 H   0  0
  -10.4428  -28.2908   53.8210 H   0  0
   -8.8414  -27.3550   54.4919 H   0  0
   -7.8773  -29.3890   55.0277 H   0  0
   -9.4787  -30.3252   54.3551 H   0  0
   -7.7996  -26.2919   52.6143 H   0  0
   -5.5268  -25.3778   52.2032 H   0  0
   -3.0149  -25.4168   53.7151 H   0  0
   -3.7763  -24.7464   52.2859 H   0  0
   -1.7063  -23.7266   52.1932 H   0  0
   -0.8719  -25.0855   52.9209 H   0  0
  1  2  1  0
  2  3  1  0
  2  4  1  0
  4  5  2  0
  4  9  1  0
  5  6  1  0
  6  7  2  0
  7  8  1  0
  8  9  2  0
  9 10  1  0
 10 11  1  0
 10 20  1  0
 10 36  1  0
 11 12  2  0
 11 13  1  0
 13 14  1  0
 14 15  2  0
 14 18  1  0
 15 16  1  0
 16 17  2  0
 17 18  1  0
 18 19  1  0
 20 21  1  0
 21 22  1  0
 22 23  1  0
 22 35  1  0
 23 24  2  0
 23 34  1  0
 24 25  1  0
 25 26  2  0
 26 27  1  0
 26 33  1  0
 27 28  1  0
 27 31  1  0
 27 32  1  0
 28 29  2  0
 28 30  1  0
 31 32  1  0
 33 34  2  0
 35 36  1  0
  1 37  1  0
  1 38  1  0
  1 39  1  0
  2 40  1  0
  3 41  1  0
  3 42  1  0
  3 43  1  0
  5 44  1  0
  6 45  1  0
  7 46  1  0
  8 47  1  0
 13 48  1  0
 16 49  1  0
 17 50  1  0
 19 51  1  0
 19 52  1  0
 19 53  1  0
 20 54  1  0
 20 55  1  0
 21 56  1  0
 21 57  1  0
 24 58  1  0
 25 59  1  0
 30 60  1  0
 31 61  1  0
 31 62  1  0
 32 63  1  0
 32 64  1  0
 33 65  1  0
 34 66  1  0
 35 67  1  0
 35 68  1  0
 36 69  1  0
 36 70  1  0
M  END
> <Name>
Molecule

> <AbsoluteEnergy>
58.16

> <Clean Energy>
216.53

> <ConfNumber>
47

> <MOL_NUMBER>
7

> <RelativeEnergy>
14.387

> <POSE_NUMBER>
61

> <LibDockScore>
107.4176

> <HotSpots>
1.67,-24.32,50.98,A,50,8
-4.73,-22.32,50.38,A,46,19
-8.73,-28.12,54.38,A,70,32

$$$$
Molecule
  SciTegic05072616053D

 70 74  0  0  0  0            999 V2000
   -1.9497  -24.8836   47.9188 C   0  0  0  1  0  0
   -1.5421  -25.9485   48.9551 C   0  0  0  1  0  0
   -0.9248  -27.1901   48.2840 C   0  0  0  1  0  0
   -0.6412  -25.3772   50.0286 C   0  0  0  1  0  0
    0.5349  -24.7308   49.5904 C   0  0  0  1  0  0
    1.4368  -24.1686   50.5006 C   0  0  0  1  0  0
    1.1758  -24.2436   51.8711 C   0  0  0  1  0  0
    0.0131  -24.8796   52.3296 C   0  0  0  1  0  0
   -0.9203  -25.4574   51.4314 C   0  0  0  1  0  0
   -2.1821  -26.1411   51.9733 C   0  0  0  1  0  0
   -3.4516  -25.5526   51.3358 C   0  0  0  1  0  0
   -4.2663  -26.2958   50.8334 O   0  0  0  1  0  0
   -3.6670  -24.1847   51.3337 N   0  0  0  1  0  0
   -4.9267  -23.5327   50.8972 C   0  0  0  1  0  0
   -6.1174  -24.1631   50.6643 N   0  0  0  1  0  0
   -6.9974  -23.2147   50.2854 C   0  0  0  1  0  0
   -6.3456  -21.9889   50.2883 C   0  0  0  1  0  0
   -5.0653  -22.1862   50.6721 N   0  0  0  1  0  0
   -4.0267  -21.1478   50.8108 C   0  0  0  1  0  0
   -2.4199  -25.9364   53.5089 C   0  0  0  1  0  0
   -3.7178  -26.6213   54.0168 C   0  0  0  1  0  0
   -3.9082  -27.9588   53.3779 N   0  0  0  1  0  0
   -5.1492  -28.5579   53.2001 C   0  0  0  1  0  0
   -6.3243  -27.7756   53.1523 C   0  0  0  1  0  0
   -7.5658  -28.3671   52.8773 C   0  0  0  1  0  0
   -7.6608  -29.7539   52.6651 C   0  0  0  1  0  0
   -8.9879  -30.3804   52.3037 C   0  0  0  1  0  0
   -8.9825  -30.9995   50.9076 C   0  0  0  1  0  0
   -8.2747  -31.9557   50.6874 O   0  0  0  1  0  0
   -9.7544  -30.4798   49.9501 O   0  0  0  1  0  0
  -10.2819  -29.7422   52.7900 C   0  0  0  1  0  0
   -9.8100  -31.0380   53.4036 C   0  0  0  1  0  0
   -6.5081  -30.5523   52.7747 C   0  0  0  1  0  0
   -5.2612  -29.9590   53.0388 C   0  0  0  1  0  0
   -2.6635  -28.5818   52.8665 C   0  0  0  1  0  0
   -2.0488  -27.6971   51.7579 C   0  0  0  1  0  0
   -2.6732  -25.3261   47.2341 H   0  0
   -1.0633  -24.5914   47.3558 H   0  0
   -2.3835  -24.0150   48.4142 H   0  0
   -2.4548  -26.2762   49.4528 H   0  0
   -0.0475  -26.8773   47.7177 H   0  0
   -1.6575  -27.6120   47.5960 H   0  0
   -0.6440  -27.9297   49.0338 H   0  0
    0.7444  -24.6685   48.5225 H   0  0
    2.3395  -23.6741   50.1418 H   0  0
    1.8759  -23.8078   52.5839 H   0  0
   -0.1778  -24.9311   53.4015 H   0  0
   -2.8704  -23.5544   51.6699 H   0  0
   -8.0418  -23.3817   50.0219 H   0  0
   -6.7914  -21.0296   50.0254 H   0  0
   -3.2315  -21.5357   50.1742 H   0  0
   -3.6839  -21.3049   51.8335 H   0  0
   -4.3175  -20.1210   50.5887 H   0  0
   -2.4774  -24.8687   53.7208 H   0  0
   -1.5688  -26.3409   54.0567 H   0  0
   -3.6590  -26.7460   55.0980 H   0  0
   -4.5741  -25.9883   53.7841 H   0  0
   -6.2656  -26.7019   53.3309 H   0  0
   -8.4619  -27.7485   52.8278 H   0  0
   -9.4707  -29.4703   49.8963 H   0  0
  -11.0972  -29.9042   52.0850 H   0  0
  -10.0867  -28.8924   53.4441 H   0  0
   -9.3639  -30.8794   54.3854 H   0  0
  -10.3731  -31.8912   53.0252 H   0  0
   -6.5817  -31.6332   52.6546 H   0  0
   -4.3722  -30.5845   53.1201 H   0  0
   -2.8913  -29.5666   52.4585 H   0  0
   -1.9491  -28.6871   53.6830 H   0  0
   -0.9919  -27.9465   51.6633 H   0  0
   -2.5166  -27.9578   50.8085 H   0  0
  1  2  1  0
  2  3  1  0
  2  4  1  0
  4  5  2  0
  4  9  1  0
  5  6  1  0
  6  7  2  0
  7  8  1  0
  8  9  2  0
  9 10  1  0
 10 11  1  0
 10 20  1  0
 10 36  1  0
 11 12  2  0
 11 13  1  0
 13 14  1  0
 14 15  2  0
 14 18  1  0
 15 16  1  0
 16 17  2  0
 17 18  1  0
 18 19  1  0
 20 21  1  0
 21 22  1  0
 22 23  1  0
 22 35  1  0
 23 24  2  0
 23 34  1  0
 24 25  1  0
 25 26  2  0
 26 27  1  0
 26 33  1  0
 27 28  1  0
 27 31  1  0
 27 32  1  0
 28 29  2  0
 28 30  1  0
 31 32  1  0
 33 34  2  0
 35 36  1  0
  1 37  1  0
  1 38  1  0
  1 39  1  0
  2 40  1  0
  3 41  1  0
  3 42  1  0
  3 43  1  0
  5 44  1  0
  6 45  1  0
  7 46  1  0
  8 47  1  0
 13 48  1  0
 16 49  1  0
 17 50  1  0
 19 51  1  0
 19 52  1  0
 19 53  1  0
 20 54  1  0
 20 55  1  0
 21 56  1  0
 21 57  1  0
 24 58  1  0
 25 59  1  0
 30 60  1  0
 31 61  1  0
 31 62  1  0
 32 63  1  0
 32 64  1  0
 33 65  1  0
 34 66  1  0
 35 67  1  0
 35 68  1  0
 36 69  1  0
 36 70  1  0
M  END
> <Name>
Molecule

> <AbsoluteEnergy>
47.9073

> <Clean Energy>
216.53

> <ConfNumber>
8

> <MOL_NUMBER>
7

> <RelativeEnergy>
4.13432

> <POSE_NUMBER>
62

> <LibDockScore>
107.23

> <HotSpots>
0.87,-24.32,52.78,A,63,7
-6.13,-22.12,49.98,A,41,17
-7.93,-28.32,52.38,A,59,25

$$$$
Molecule
  SciTegic05072616053D

 70 74  0  0  0  0            999 V2000
   -0.2975  -26.2890   53.7867 C   0  0  0  1  0  0
   -1.4694  -27.1342   53.2539 C   0  0  0  1  0  0
   -2.3574  -27.6601   54.3980 C   0  0  0  1  0  0
   -2.2812  -26.3942   52.2134 C   0  0  0  1  0  0
   -2.1830  -24.9843   52.2231 C   0  0  0  1  0  0
   -2.9369  -24.1965   51.3455 C   0  0  0  1  0  0
   -3.8149  -24.8072   50.4495 C   0  0  0  1  0  0
   -3.9158  -26.2047   50.4114 C   0  0  0  1  0  0
   -3.1339  -27.0370   51.2563 C   0  0  0  1  0  0
   -3.2479  -28.5706   51.1419 C   0  0  0  1  0  0
   -4.1043  -29.0781   52.3077 C   0  0  0  1  0  0
   -3.6176  -29.8023   53.1409 O   0  0  0  1  0  0
   -5.4261  -28.6744   52.3797 N   0  0  0  1  0  0
   -6.4851  -29.0444   53.3509 C   0  0  0  1  0  0
   -7.6749  -28.3760   53.3408 N   0  0  0  1  0  0
   -8.4405  -28.8952   54.3148 C   0  0  0  1  0  0
   -7.7170  -29.8998   54.9383 C   0  0  0  1  0  0
   -6.5028  -29.9941   54.3514 N   0  0  0  1  0  0
   -5.4566  -30.9442   54.7697 C   0  0  0  1  0  0
   -3.9745  -29.0945   49.8461 C   0  0  0  1  0  0
   -3.1613  -29.0370   48.5230 C   0  0  0  1  0  0
   -1.8558  -28.3593   48.7456 N   0  0  0  1  0  0
   -1.5443  -27.1286   48.1724 C   0  0  0  1  0  0
   -2.3650  -26.5645   47.1685 C   0  0  0  1  0  0
   -2.2103  -25.2207   46.7948 C   0  0  0  1  0  0
   -1.2125  -24.4384   47.3967 C   0  0  0  1  0  0
   -1.1725  -22.9509   47.1697 C   0  0  0  1  0  0
   -2.5104  -22.3363   47.5609 C   0  0  0  1  0  0
   -3.3304  -22.1097   46.7031 O   0  0  0  1  0  0
   -2.7733  -22.0863   48.8421 O   0  0  0  1  0  0
    0.1042  -22.1688   47.4231 C   0  0  0  1  0  0
   -0.3897  -22.3637   46.0089 C   0  0  0  1  0  0
   -0.2736  -25.0412   48.2489 C   0  0  0  1  0  0
   -0.4345  -26.3800   48.6303 C   0  0  0  1  0  0
   -1.0248  -29.0461   49.7675 C   0  0  0  1  0  0
   -1.8302  -29.2549   51.0798 C   0  0  0  1  0  0
    0.2993  -26.9075   54.4571 H   0  0
   -0.7039  -25.4484   54.3491 H   0  0
    0.3174  -25.9272   52.9627 H   0  0
   -1.0322  -27.9996   52.7559 H   0  0
   -2.7460  -26.8076   54.9551 H   0  0
   -1.7428  -28.2667   55.0631 H   0  0
   -3.1796  -28.2549   54.0001 H   0  0
   -1.5067  -24.5008   52.9280 H   0  0
   -2.8385  -23.1111   51.3620 H   0  0
   -4.4219  -24.1980   49.7797 H   0  0
   -4.6143  -26.6661   49.7134 H   0  0
   -5.7317  -27.9893   51.6168 H   0  0
   -9.4528  -28.5816   54.5700 H   0  0
   -8.0697  -30.5138   55.7670 H   0  0
   -4.6198  -30.2667   54.9393 H   0  0
   -5.2319  -31.4328   53.8216 H   0  0
   -5.6720  -31.6225   55.5953 H   0  0
   -4.2810  -30.1266   50.0160 H   0  0
   -4.8926  -28.5231   49.7095 H   0  0
   -2.9843  -30.0506   48.1633 H   0  0
   -3.7291  -28.4871   47.7724 H   0  0
   -3.1232  -27.1778   46.6815 H   0  0
   -2.8637  -24.7854   46.0387 H   0  0
   -1.9871  -21.4674   49.1604 H   0  0
    0.9404  -22.8297   47.6513 H   0  0
   -0.1080  -21.1639   47.7880 H   0  0
   -0.8638  -21.4621   45.6211 H   0  0
    0.1832  -23.1288   45.4849 H   0  0
    0.5793  -24.4686   48.6134 H   0  0
    0.3009  -26.8481   49.2846 H   0  0
   -0.7075  -30.0149   49.3818 H   0  0
   -0.1417  -28.4434   49.9794 H   0  0
   -1.2318  -28.8870   51.9132 H   0  0
   -1.9547  -30.3258   51.2404 H   0  0
  1  2  1  0
  2  3  1  0
  2  4  1  0
  4  5  2  0
  4  9  1  0
  5  6  1  0
  6  7  2  0
  7  8  1  0
  8  9  2  0
  9 10  1  0
 10 11  1  0
 10 20  1  0
 10 36  1  0
 11 12  2  0
 11 13  1  0
 13 14  1  0
 14 15  2  0
 14 18  1  0
 15 16  1  0
 16 17  2  0
 17 18  1  0
 18 19  1  0
 20 21  1  0
 21 22  1  0
 22 23  1  0
 22 35  1  0
 23 24  2  0
 23 34  1  0
 24 25  1  0
 25 26  2  0
 26 27  1  0
 26 33  1  0
 27 28  1  0
 27 31  1  0
 27 32  1  0
 28 29  2  0
 28 30  1  0
 31 32  1  0
 33 34  2  0
 35 36  1  0
  1 37  1  0
  1 38  1  0
  1 39  1  0
  2 40  1  0
  3 41  1  0
  3 42  1  0
  3 43  1  0
  5 44  1  0
  6 45  1  0
  7 46  1  0
  8 47  1  0
 13 48  1  0
 16 49  1  0
 17 50  1  0
 19 51  1  0
 19 52  1  0
 19 53  1  0
 20 54  1  0
 20 55  1  0
 21 56  1  0
 21 57  1  0
 24 58  1  0
 25 59  1  0
 30 60  1  0
 31 61  1  0
 31 62  1  0
 32 63  1  0
 32 64  1  0
 33 65  1  0
 34 66  1  0
 35 67  1  0
 35 68  1  0
 36 69  1  0
 36 70  1  0
M  END
> <Name>
Molecule

> <AbsoluteEnergy>
58.5696

> <Clean Energy>
216.53

> <ConfNumber>
54

> <MOL_NUMBER>
7

> <RelativeEnergy>
14.7966

> <POSE_NUMBER>
63

> <LibDockScore>
107.1551

> <HotSpots>
-8.73,-28.12,54.38,A,70,16
0.27,-22.52,46.78,A,23,31
-1.93,-29.12,49.19,A,34,35

$$$$
Molecule
  SciTegic05072616053D

 70 74  0  0  0  0            999 V2000
   -5.9608  -31.6282   52.0416 C   0  0  0  1  0  0
   -5.9296  -30.2686   52.7717 C   0  0  0  1  0  0
   -7.3069  -29.9343   53.3746 C   0  0  0  1  0  0
   -4.8334  -30.1978   53.8129 C   0  0  0  1  0  0
   -4.9356  -31.1187   54.8821 C   0  0  0  1  0  0
   -3.9475  -31.2093   55.8666 C   0  0  0  1  0  0
   -2.8298  -30.3773   55.7994 C   0  0  0  1  0  0
   -2.7195  -29.4369   54.7667 C   0  0  0  1  0  0
   -3.7263  -29.2818   53.7738 C   0  0  0  1  0  0
   -3.5679  -28.1665   52.7233 C   0  0  0  1  0  0
   -2.5649  -27.0689   53.1655 C   0  0  0  1  0  0
   -2.6764  -26.6023   54.2785 O   0  0  0  1  0  0
   -1.5780  -26.5777   52.3281 N   0  0  0  1  0  0
   -0.6157  -25.5060   52.6781 C   0  0  0  1  0  0
   -0.3492  -25.0299   53.9314 N   0  0  0  1  0  0
    0.4891  -23.9848   53.7824 C   0  0  0  1  0  0
    0.7831  -23.8512   52.4324 C   0  0  0  1  0  0
    0.1296  -24.8179   51.7549 N   0  0  0  1  0  0
    0.1980  -25.0584   50.3013 C   0  0  0  1  0  0
   -3.2192  -28.8023   51.3320 C   0  0  0  1  0  0
   -3.7513  -28.0192   50.1030 C   0  0  0  1  0  0
   -3.8413  -26.5453   50.3494 N   0  0  0  1  0  0
   -3.1553  -25.6153   49.5610 C   0  0  0  1  0  0
   -2.4491  -26.0287   48.4069 C   0  0  0  1  0  0
   -1.7268  -25.1058   47.6309 C   0  0  0  1  0  0
   -1.7011  -23.7464   47.9840 C   0  0  0  1  0  0
   -0.9113  -22.7591   47.1447 C   0  0  0  1  0  0
   -1.7801  -21.7859   46.3323 C   0  0  0  1  0  0
   -2.9374  -21.6214   46.6467 O   0  0  0  1  0  0
   -1.2728  -21.1196   45.2880 O   0  0  0  1  0  0
    0.3979  -23.2678   46.5552 C   0  0  0  1  0  0
    0.4236  -22.2526   47.6721 C   0  0  0  1  0  0
   -2.4106  -23.3176   49.1191 C   0  0  0  1  0  0
   -3.1298  -24.2398   49.8961 C   0  0  0  1  0  0
   -4.6857  -26.1440   51.5214 C   0  0  0  1  0  0
   -4.8609  -27.2953   52.5462 C   0  0  0  1  0  0
   -6.7053  -31.5839   51.2467 H   0  0
   -6.2448  -32.4035   52.7532 H   0  0
   -4.9806  -31.8515   51.6204 H   0  0
   -5.6956  -29.5093   52.0255 H   0  0
   -7.5831  -30.7195   54.0784 H   0  0
   -8.0436  -29.8999   52.5720 H   0  0
   -7.2701  -28.9727   53.8865 H   0  0
   -5.8055  -31.7730   54.9395 H   0  0
   -4.0497  -31.9256   56.6818 H   0  0
   -2.0431  -30.4587   56.5495 H   0  0
   -1.8335  -28.8036   54.7227 H   0  0
   -1.5040  -27.0058   51.3503 H   0  0
    0.8707  -23.3530   54.5845 H   0  0
    1.4322  -23.0934   51.9937 H   0  0
   -0.8529  -25.0136   50.0156 H   0  0
    0.4656  -26.1142   50.2598 H   0  0
    0.8494  -24.4073   49.7184 H   0  0
   -3.6204  -29.8152   51.2993 H   0  0
   -2.1357  -28.8869   51.2483 H   0  0
   -4.7406  -28.3949   49.8420 H   0  0
   -3.0897  -28.1962   49.2550 H   0  0
   -2.4654  -27.0788   48.1151 H   0  0
   -1.1833  -25.4470   46.7498 H   0  0
   -0.8937  -21.8724   44.6619 H   0  0
    0.6063  -22.8084   45.5890 H   0  0
    0.6355  -24.2688   46.9154 H   0  0
    0.6764  -22.7120   48.6277 H   0  0
    0.6457  -21.2519   47.3014 H   0  0
   -2.4024  -22.2638   49.3976 H   0  0
   -3.6775  -23.8911   50.7716 H   0  0
   -5.6676  -25.8341   51.1637 H   0  0
   -4.2214  -25.2925   52.0190 H   0  0
   -5.1374  -26.8699   53.5109 H   0  0
   -5.6787  -27.9375   52.2193 H   0  0
  1  2  1  0
  2  3  1  0
  2  4  1  0
  4  5  2  0
  4  9  1  0
  5  6  1  0
  6  7  2  0
  7  8  1  0
  8  9  2  0
  9 10  1  0
 10 11  1  0
 10 20  1  0
 10 36  1  0
 11 12  2  0
 11 13  1  0
 13 14  1  0
 14 15  2  0
 14 18  1  0
 15 16  1  0
 16 17  2  0
 17 18  1  0
 18 19  1  0
 20 21  1  0
 21 22  1  0
 22 23  1  0
 22 35  1  0
 23 24  2  0
 23 34  1  0
 24 25  1  0
 25 26  2  0
 26 27  1  0
 26 33  1  0
 27 28  1  0
 27 31  1  0
 27 32  1  0
 28 29  2  0
 28 30  1  0
 31 32  1  0
 33 34  2  0
 35 36  1  0
  1 37  1  0
  1 38  1  0
  1 39  1  0
  2 40  1  0
  3 41  1  0
  3 42  1  0
  3 43  1  0
  5 44  1  0
  6 45  1  0
  7 46  1  0
  8 47  1  0
 13 48  1  0
 16 49  1  0
 17 50  1  0
 19 51  1  0
 19 52  1  0
 19 53  1  0
 20 54  1  0
 20 55  1  0
 21 56  1  0
 21 57  1  0
 24 58  1  0
 25 59  1  0
 30 60  1  0
 31 61  1  0
 31 62  1  0
 32 63  1  0
 32 64  1  0
 33 65  1  0
 34 66  1  0
 35 67  1  0
 35 68  1  0
 36 69  1  0
 36 70  1  0
M  END
> <Name>
Molecule

> <AbsoluteEnergy>
56.2652

> <Clean Energy>
216.53

> <ConfNumber>
39

> <MOL_NUMBER>
7

> <RelativeEnergy>
12.4922

> <POSE_NUMBER>
64

> <LibDockScore>
106.8613

> <HotSpots>
-4.13,-31.12,56.59,A,79,6
-3.13,-26.32,54.59,P,53,12
0.87,-24.32,52.78,A,63,17

$$$$
Molecule
  SciTegic05072616053D

 70 74  0  0  0  0            999 V2000
   -7.1245  -29.2428   53.2135 C   0  0  0  1  0  0
   -6.1364  -30.4342   53.1616 C   0  0  0  1  0  0
   -5.8401  -31.0440   51.7749 C   0  0  0  1  0  0
   -4.9349  -30.3283   54.0899 C   0  0  0  1  0  0
   -5.0698  -31.0440   55.3080 C   0  0  0  1  0  0
   -4.0360  -31.1220   56.2449 C   0  0  0  1  0  0
   -2.8242  -30.4865   55.9854 C   0  0  0  1  0  0
   -2.6672  -29.7520   54.8056 C   0  0  0  1  0  0
   -3.7093  -29.6045   53.8489 C   0  0  0  1  0  0
   -3.3711  -28.6902   52.6570 C   0  0  0  1  0  0
   -2.7394  -27.3763   53.1802 C   0  0  0  1  0  0
   -3.3987  -26.6816   53.9235 O   0  0  0  1  0  0
   -1.4664  -26.9694   52.8210 N   0  0  0  1  0  0
   -0.9867  -25.5662   52.8009 C   0  0  0  1  0  0
   -1.7641  -24.4417   52.7848 N   0  0  0  1  0  0
   -0.9293  -23.3848   52.7236 C   0  0  0  1  0  0
    0.3755  -23.8613   52.7075 C   0  0  0  1  0  0
    0.3368  -25.2106   52.7739 N   0  0  0  1  0  0
    1.5002  -26.1151   52.8017 C   0  0  0  1  0  0
   -4.5631  -28.1330   51.8251 C   0  0  0  1  0  0
   -4.1283  -27.1489   50.7099 C   0  0  0  1  0  0
   -2.8235  -27.5461   50.0940 N   0  0  0  1  0  0
   -1.9442  -26.6293   49.5226 C   0  0  0  1  0  0
   -2.1394  -25.2381   49.6907 C   0  0  0  1  0  0
   -1.2114  -24.3148   49.1927 C   0  0  0  1  0  0
   -0.0783  -24.7595   48.4907 C   0  0  0  1  0  0
    0.9375  -23.7555   47.9963 C   0  0  0  1  0  0
    2.1190  -23.6090   48.9498 C   0  0  0  1  0  0
    3.1787  -24.1196   48.6674 O   0  0  0  1  0  0
    1.9538  -22.9183   50.0821 O   0  0  0  1  0  0
    1.1518  -23.5855   46.4971 C   0  0  0  1  0  0
    0.4463  -22.5036   47.2827 C   0  0  0  1  0  0
    0.1043  -26.1372   48.2695 C   0  0  0  1  0  0
   -0.8221  -27.0641   48.7791 C   0  0  0  1  0  0
   -2.4951  -28.9984   50.1883 C   0  0  0  1  0  0
   -2.4746  -29.4981   51.6574 C   0  0  0  1  0  0
   -8.0502  -29.5993   52.7616 H   0  0
   -6.7103  -28.4791   52.5553 H   0  0
   -7.2840  -28.8660   54.2238 H   0  0
   -6.7436  -31.2191   53.6125 H   0  0
   -5.4648  -30.2258   51.1603 H   0  0
   -6.8046  -31.3460   51.3666 H   0  0
   -5.1377  -31.8764   51.8169 H   0  0
   -6.0117  -31.5500   55.5199 H   0  0
   -4.1771  -31.6765   57.1726 H   0  0
   -2.0027  -30.5612   56.6979 H   0  0
   -1.7074  -29.2732   54.6114 H   0  0
   -0.7707  -27.7300   52.5341 H   0  0
   -1.2270  -22.3367   52.6922 H   0  0
    1.2768  -23.2510   52.6510 H   0  0
    1.2923  -26.7796   51.9631 H   0  0
    1.3080  -26.7062   53.6971 H   0  0
    2.4877  -25.6545   52.7733 H   0  0
   -5.2550  -27.6228   52.4951 H   0  0
   -5.0974  -28.9673   51.3705 H   0  0
   -4.8950  -27.1244   49.9355 H   0  0
   -4.0331  -26.1483   51.1316 H   0  0
   -3.0250  -24.8796   50.2155 H   0  0
   -1.3687  -23.2478   49.3502 H   0  0
    1.1521  -23.3853   50.5737 H   0  0
    0.4488  -24.1881   45.9220 H   0  0
    2.1818  -23.3108   46.2698 H   0  0
    1.1006  -21.6526   47.4718 H   0  0
   -0.6319  -22.5306   47.1254 H   0  0
    0.9664  -26.4868   47.7015 H   0  0
   -0.6740  -28.1289   48.5993 H   0  0
   -1.5177  -29.1735   49.7387 H   0  0
   -3.2364  -29.5683   49.6282 H   0  0
   -2.7887  -30.5417   51.6725 H   0  0
   -1.4458  -29.4755   52.0167 H   0  0
  1  2  1  0
  2  3  1  0
  2  4  1  0
  4  5  2  0
  4  9  1  0
  5  6  1  0
  6  7  2  0
  7  8  1  0
  8  9  2  0
  9 10  1  0
 10 11  1  0
 10 20  1  0
 10 36  1  0
 11 12  2  0
 11 13  1  0
 13 14  1  0
 14 15  2  0
 14 18  1  0
 15 16  1  0
 16 17  2  0
 17 18  1  0
 18 19  1  0
 20 21  1  0
 21 22  1  0
 22 23  1  0
 22 35  1  0
 23 24  2  0
 23 34  1  0
 24 25  1  0
 25 26  2  0
 26 27  1  0
 26 33  1  0
 27 28  1  0
 27 31  1  0
 27 32  1  0
 28 29  2  0
 28 30  1  0
 31 32  1  0
 33 34  2  0
 35 36  1  0
  1 37  1  0
  1 38  1  0
  1 39  1  0
  2 40  1  0
  3 41  1  0
  3 42  1  0
  3 43  1  0
  5 44  1  0
  6 45  1  0
  7 46  1  0
  8 47  1  0
 13 48  1  0
 16 49  1  0
 17 50  1  0
 19 51  1  0
 19 52  1  0
 19 53  1  0
 20 54  1  0
 20 55  1  0
 21 56  1  0
 21 57  1  0
 24 58  1  0
 25 59  1  0
 30 60  1  0
 31 61  1  0
 31 62  1  0
 32 63  1  0
 32 64  1  0
 33 65  1  0
 34 66  1  0
 35 67  1  0
 35 68  1  0
 36 69  1  0
 36 70  1  0
M  END
> <Name>
Molecule

> <AbsoluteEnergy>
63.0134

> <Clean Energy>
216.53

> <ConfNumber>
87

> <MOL_NUMBER>
7

> <RelativeEnergy>
19.2404

> <POSE_NUMBER>
65

> <LibDockScore>
106.3705

> <HotSpots>
-4.13,-31.12,56.59,A,79,5
0.87,-24.32,52.78,A,63,17
-0.93,-23.32,46.98,A,25,32

$$$$
Molecule
  SciTegic05072616053D

 70 74  0  0  0  0            999 V2000
   -4.0775  -25.0894   46.6225 C   0  0  0  1  0  0
   -3.1219  -24.8108   47.8064 C   0  0  0  1  0  0
   -2.1923  -23.6245   47.4837 C   0  0  0  1  0  0
   -3.8514  -24.5923   49.1136 C   0  0  0  1  0  0
   -4.9064  -23.6513   49.1053 C   0  0  0  1  0  0
   -5.5186  -23.2362   50.2926 C   0  0  0  1  0  0
   -5.0845  -23.7572   51.5135 C   0  0  0  1  0  0
   -4.0938  -24.7475   51.5353 C   0  0  0  1  0  0
   -3.5192  -25.2601   50.3381 C   0  0  0  1  0  0
   -2.5617  -26.4662   50.4097 C   0  0  0  1  0  0
   -1.3206  -26.1273   49.5560 C   0  0  0  1  0  0
   -1.1741  -26.6344   48.4662 O   0  0  0  1  0  0
   -0.3705  -25.2335   50.0275 N   0  0  0  1  0  0
    0.9209  -24.8918   49.3675 C   0  0  0  1  0  0
    1.2191  -25.0008   48.0355 N   0  0  0  1  0  0
    2.4897  -24.5729   47.8722 C   0  0  0  1  0  0
    2.9848  -24.2030   49.1146 C   0  0  0  1  0  0
    2.0133  -24.3987   50.0359 N   0  0  0  1  0  0
    2.1199  -24.1237   51.4801 C   0  0  0  1  0  0
   -2.0923  -26.7779   51.8777 C   0  0  0  1  0  0
   -3.2383  -27.2456   52.8227 C   0  0  0  1  0  0
   -4.0425  -28.3487   52.2148 N   0  0  0  1  0  0
   -5.2757  -28.7635   52.7211 C   0  0  0  1  0  0
   -6.2098  -27.8032   53.1722 C   0  0  0  1  0  0
   -7.4623  -28.1997   53.6706 C   0  0  0  1  0  0
   -7.8029  -29.5677   53.7636 C   0  0  0  1  0  0
   -9.1319  -29.9987   54.3649 C   0  0  0  1  0  0
  -10.1318  -30.6180   53.3831 C   0  0  0  1  0  0
  -10.2813  -30.1195   52.2874 O   0  0  0  1  0  0
  -10.8416  -31.6897   53.7570 O   0  0  0  1  0  0
   -9.0990  -30.5870   55.7707 C   0  0  0  1  0  0
   -9.7062  -29.2242   55.5454 C   0  0  0  1  0  0
   -6.8859  -30.5330   53.3070 C   0  0  0  1  0  0
   -5.6357  -30.1361   52.7876 C   0  0  0  1  0  0
   -3.4515  -28.9343   50.9897 C   0  0  0  1  0  0
   -3.2669  -27.8153   49.9385 C   0  0  0  1  0  0
   -3.4872  -25.3205   45.7358 H   0  0
   -4.6767  -24.1990   46.4320 H   0  0
   -4.7302  -25.9293   46.8603 H   0  0
   -2.5156  -25.7065   47.9415 H   0  0
   -2.7989  -22.7399   47.2898 H   0  0
   -1.6094  -23.8613   46.5936 H   0  0
   -1.5233  -23.4362   48.3234 H   0  0
   -5.2494  -23.2413   48.1554 H   0  0
   -6.3306  -22.5096   50.2650 H   0  0
   -5.5153  -23.3944   52.4467 H   0  0
   -3.7537  -25.1361   52.4952 H   0  0
   -0.5855  -24.7425   50.9536 H   0  0
    3.0323  -24.5262   46.9280 H   0  0
    3.9856  -23.8201   49.3143 H   0  0
    1.8372  -25.0818   51.9163 H   0  0
    1.2696  -23.4633   51.6500 H   0  0
    3.0703  -23.7309   51.8414 H   0  0
   -1.6335  -25.8834   52.2990 H   0  0
   -1.3261  -27.5525   51.8453 H   0  0
   -2.8083  -27.5937   53.7619 H   0  0
   -3.8947  -26.4019   53.0359 H   0  0
   -5.9558  -26.7439   53.1330 H   0  0
   -8.1794  -27.4431   53.9891 H   0  0
  -11.3365  -31.3933   54.6344 H   0  0
   -8.1039  -30.5169   56.2099 H   0  0
   -9.8641  -31.3524   55.9007 H   0  0
  -10.7955  -29.2619   55.5560 H   0  0
   -9.0350  -28.4265   55.8636 H   0  0
   -7.1427  -31.5912   53.3549 H   0  0
   -4.9364  -30.8930   52.4324 H   0  0
   -4.1172  -29.7005   50.5924 H   0  0
   -2.4830  -29.3749   51.2263 H   0  0
   -2.6994  -28.2255   49.1032 H   0  0
   -4.2476  -27.5654   49.5336 H   0  0
  1  2  1  0
  2  3  1  0
  2  4  1  0
  4  5  2  0
  4  9  1  0
  5  6  1  0
  6  7  2  0
  7  8  1  0
  8  9  2  0
  9 10  1  0
 10 11  1  0
 10 20  1  0
 10 36  1  0
 11 12  2  0
 11 13  1  0
 13 14  1  0
 14 15  2  0
 14 18  1  0
 15 16  1  0
 16 17  2  0
 17 18  1  0
 18 19  1  0
 20 21  1  0
 21 22  1  0
 22 23  1  0
 22 35  1  0
 23 24  2  0
 23 34  1  0
 24 25  1  0
 25 26  2  0
 26 27  1  0
 26 33  1  0
 27 28  1  0
 27 31  1  0
 27 32  1  0
 28 29  2  0
 28 30  1  0
 31 32  1  0
 33 34  2  0
 35 36  1  0
  1 37  1  0
  1 38  1  0
  1 39  1  0
  2 40  1  0
  3 41  1  0
  3 42  1  0
  3 43  1  0
  5 44  1  0
  6 45  1  0
  7 46  1  0
  8 47  1  0
 13 48  1  0
 16 49  1  0
 17 50  1  0
 19 51  1  0
 19 52  1  0
 19 53  1  0
 20 54  1  0
 20 55  1  0
 21 56  1  0
 21 57  1  0
 24 58  1  0
 25 59  1  0
 30 60  1  0
 31 61  1  0
 31 62  1  0
 32 63  1  0
 32 64  1  0
 33 65  1  0
 34 66  1  0
 35 67  1  0
 35 68  1  0
 36 69  1  0
 36 70  1  0
M  END
> <Name>
Molecule

> <AbsoluteEnergy>
54.622

> <Clean Energy>
216.53

> <ConfNumber>
28

> <MOL_NUMBER>
7

> <RelativeEnergy>
10.849

> <POSE_NUMBER>
66

> <LibDockScore>
106.1261

> <HotSpots>
-5.33,-24.12,49.78,A,36,5
2.67,-23.92,48.98,A,32,16
2.67,-22.92,49.98,A,39,17

$$$$
Molecule
  SciTegic05072616053D

 70 74  0  0  0  0            999 V2000
   -1.2761  -20.6984   47.2695 C   0  0  0  1  0  0
   -1.5946  -22.0368   46.5723 C   0  0  0  1  0  0
   -3.0760  -22.3334   46.2562 C   0  0  0  1  0  0
   -0.7495  -23.2136   47.0392 C   0  0  0  1  0  0
    0.5226  -23.2897   46.4171 C   0  0  0  1  0  0
    1.4036  -24.3489   46.6484 C   0  0  0  1  0  0
    1.0291  -25.3758   47.5101 C   0  0  0  1  0  0
   -0.2052  -25.3162   48.1633 C   0  0  0  1  0  0
   -1.1065  -24.2254   48.0055 C   0  0  0  1  0  0
   -2.3754  -24.2706   48.8825 C   0  0  0  1  0  0
   -2.2321  -25.3078   50.0266 C   0  0  0  1  0  0
   -2.8583  -26.3444   49.9904 O   0  0  0  1  0  0
   -1.3975  -25.0653   51.1032 N   0  0  0  1  0  0
   -1.3385  -25.9078   52.3249 C   0  0  0  1  0  0
   -2.2353  -26.8793   52.6811 N   0  0  0  1  0  0
   -1.8187  -27.3918   53.8553 C   0  0  0  1  0  0
   -0.6554  -26.7334   54.2275 C   0  0  0  1  0  0
   -0.3611  -25.8142   53.2808 N   0  0  0  1  0  0
    0.7925  -24.8950   53.2854 C   0  0  0  1  0  0
   -3.6059  -24.6692   47.9914 C   0  0  0  1  0  0
   -4.9709  -24.1692   48.5339 C   0  0  0  1  0  0
   -4.9407  -24.1175   50.0199 N   0  0  0  1  0  0
   -5.6208  -25.0159   50.8419 C   0  0  0  1  0  0
   -5.9824  -26.3022   50.3752 C   0  0  0  1  0  0
   -6.5344  -27.2531   51.2460 C   0  0  0  1  0  0
   -6.7345  -26.9361   52.5989 C   0  0  0  1  0  0
   -7.2022  -28.0023   53.5591 C   0  0  0  1  0  0
   -6.0375  -28.7314   54.2346 C   0  0  0  1  0  0
   -6.2773  -29.6213   55.0200 O   0  0  0  1  0  0
   -4.7808  -28.3744   53.9466 O   0  0  0  1  0  0
   -8.4584  -28.7888   53.2194 C   0  0  0  1  0  0
   -8.4840  -27.7843   54.3468 C   0  0  0  1  0  0
   -6.4717  -25.6337   53.0544 C   0  0  0  1  0  0
   -5.9300  -24.6786   52.1810 C   0  0  0  1  0  0
   -3.9937  -23.0951   50.5611 C   0  0  0  1  0  0
   -2.7453  -22.9526   49.6473 C   0  0  0  1  0  0
   -1.8584  -20.6934   48.1909 H   0  0
   -1.6787  -19.9191   46.6224 H   0  0
   -0.2119  -20.5596   47.4599 H   0  0
   -1.2326  -21.8586   45.5597 H   0  0
   -3.4237  -21.5043   45.6400 H   0  0
   -3.6034  -22.2786   47.2085 H   0  0
   -3.2226  -23.2951   45.7646 H   0  0
    0.8233  -22.4944   45.7350 H   0  0
    2.3767  -24.3710   46.1579 H   0  0
    1.6953  -26.2226   47.6748 H   0  0
   -0.4893  -26.1383   48.8202 H   0  0
   -0.7514  -24.2139   51.0522 H   0  0
   -2.3106  -28.1865   54.4162 H   0  0
   -0.0764  -26.9250   55.1309 H   0  0
    0.3106  -23.9239   53.1719 H   0  0
    1.2556  -25.1056   52.3214 H   0  0
    1.4748  -24.9595   54.1330 H   0  0
   -3.4589  -24.2673   46.9889 H   0  0
   -3.6406  -25.7551   47.9036 H   0  0
   -5.1733  -23.1725   48.1418 H   0  0
   -5.7603  -24.8485   48.2122 H   0  0
   -5.8301  -26.5569   49.3264 H   0  0
   -6.8084  -28.2395   50.8718 H   0  0
   -4.7362  -27.3480   54.1635 H   0  0
   -8.4038  -29.8113   53.5931 H   0  0
   -8.9430  -28.4005   52.3236 H   0  0
   -8.9832  -26.8614   54.0517 H   0  0
   -8.4424  -28.2718   55.3208 H   0  0
   -6.6889  -25.3646   54.0881 H   0  0
   -5.7452  -23.6654   52.5379 H   0  0
   -4.5024  -22.1333   50.6267 H   0  0
   -3.6751  -23.3923   51.5602 H   0  0
   -1.8951  -22.6480   50.2576 H   0  0
   -2.9296  -22.1613   48.9206 H   0  0
  1  2  1  0
  2  3  1  0
  2  4  1  0
  4  5  2  0
  4  9  1  0
  5  6  1  0
  6  7  2  0
  7  8  1  0
  8  9  2  0
  9 10  1  0
 10 11  1  0
 10 20  1  0
 10 36  1  0
 11 12  2  0
 11 13  1  0
 13 14  1  0
 14 15  2  0
 14 18  1  0
 15 16  1  0
 16 17  2  0
 17 18  1  0
 18 19  1  0
 20 21  1  0
 21 22  1  0
 22 23  1  0
 22 35  1  0
 23 24  2  0
 23 34  1  0
 24 25  1  0
 25 26  2  0
 26 27  1  0
 26 33  1  0
 27 28  1  0
 27 31  1  0
 27 32  1  0
 28 29  2  0
 28 30  1  0
 31 32  1  0
 33 34  2  0
 35 36  1  0
  1 37  1  0
  1 38  1  0
  1 39  1  0
  2 40  1  0
  3 41  1  0
  3 42  1  0
  3 43  1  0
  5 44  1  0
  6 45  1  0
  7 46  1  0
  8 47  1  0
 13 48  1  0
 16 49  1  0
 17 50  1  0
 19 51  1  0
 19 52  1  0
 19 53  1  0
 20 54  1  0
 20 55  1  0
 21 56  1  0
 21 57  1  0
 24 58  1  0
 25 59  1  0
 30 60  1  0
 31 61  1  0
 31 62  1  0
 32 63  1  0
 32 64  1  0
 33 65  1  0
 34 66  1  0
 35 67  1  0
 35 68  1  0
 36 69  1  0
 36 70  1  0
M  END
> <Name>
Molecule

> <AbsoluteEnergy>
62.2611

> <Clean Energy>
216.53

> <ConfNumber>
81

> <MOL_NUMBER>
7

> <RelativeEnergy>
18.4881

> <POSE_NUMBER>
67

> <LibDockScore>
90.8075

> <HotSpots>
-3.53,-22.32,46.59,A,20,3
0.27,-22.52,46.78,A,23,5
0.47,-23.32,53.78,A,67,19

$$$$
Molecule
  SciTegic05072616053D

 68 72  0  0  0  0            999 V2000
   -1.1351  -22.6198   47.2863 C   0  0  0  1  0  0
   -0.6386  -23.9819   47.8157 C   0  0  0  1  0  0
   -0.1439  -24.8765   46.6646 C   0  0  0  1  0  0
    0.4153  -23.8406   48.8958 C   0  0  0  1  0  0
    1.6225  -23.2100   48.5124 C   0  0  0  1  0  0
    2.6835  -23.0582   49.4113 C   0  0  0  1  0  0
    2.5606  -23.5515   50.7120 C   0  0  0  1  0  0
    1.3749  -24.1784   51.1156 C   0  0  0  1  0  0
    0.2593  -24.3098   50.2461 C   0  0  0  1  0  0
   -1.0420  -24.9599   50.7635 C   0  0  0  1  0  0
   -2.2672  -24.0559   50.5091 C   0  0  0  1  0  0
   -2.1123  -22.9035   50.1634 O   0  0  0  1  0  0
   -3.5480  -24.5689   50.6779 N   0  0  0  1  0  0
   -4.7586  -23.9012   50.5364 C   0  0  0  1  0  0
   -5.9633  -24.6415   50.6660 C   0  0  0  1  0  0
   -7.1812  -24.0430   50.5222 N   0  0  0  1  0  0
   -7.2252  -22.7085   50.2492 C   0  0  0  1  0  0
   -6.0387  -21.9597   50.1209 C   0  0  0  1  0  0
   -4.8219  -22.5576   50.2653 N   0  0  0  1  0  0
   -1.1438  -26.3550   50.0347 C   0  0  0  1  0  0
   -1.9381  -27.4784   50.7324 C   0  0  0  1  0  0
   -1.6533  -27.5697   52.1904 N   0  0  0  1  0  0
   -2.3293  -28.4773   52.9881 C   0  0  0  1  0  0
   -1.9512  -28.6914   54.3310 C   0  0  0  1  0  0
   -2.6225  -29.6474   55.1139 C   0  0  0  1  0  0
   -3.6897  -30.3916   54.5742 C   0  0  0  1  0  0
   -4.3922  -31.4369   55.4235 C   0  0  0  1  0  0
   -4.3455  -31.1626   56.9344 C   0  0  0  1  0  0
   -4.3254  -30.0159   57.3228 O   0  0  0  1  0  0
   -4.3251  -32.1781   57.8094 O   0  0  0  1  0  0
   -4.2994  -32.8807   54.9501 C   0  0  0  1  0  0
   -5.6134  -32.1436   54.8506 C   0  0  0  1  0  0
   -4.0916  -30.1523   53.2447 C   0  0  0  1  0  0
   -3.4165  -29.2053   52.4585 C   0  0  0  1  0  0
   -0.6503  -26.6230   52.7441 C   0  0  0  1  0  0
   -1.0526  -25.1985   52.3267 C   0  0  0  1  0  0
   -1.9497  -22.7921   46.5828 H   0  0
   -0.3147  -22.1246   46.7668 H   0  0
   -1.4817  -21.9983   48.1119 H   0  0
   -1.4954  -24.4684   48.2818 H   0  0
    0.6703  -24.3673   46.1489 H   0  0
   -0.9647  -25.0347   45.9650 H   0  0
    0.2031  -25.8338   47.0536 H   0  0
    1.7280  -22.8344   47.4946 H   0  0
    3.6002  -22.5582   49.0986 H   0  0
    3.3882  -23.4486   51.4138 H   0  0
    1.3061  -24.5775   52.1276 H   0  0
   -3.6092  -25.6021   50.9494 H   0  0
   -5.9143  -25.7082   50.8845 H   0  0
   -8.1895  -22.2148   50.1287 H   0  0
   -6.0940  -20.8929   49.9043 H   0  0
   -1.5804  -26.1938   49.0490 H   0  0
   -0.1331  -26.7194   49.8509 H   0  0
   -1.6925  -28.4317   50.2644 H   0  0
   -3.0041  -27.3000   50.5912 H   0  0
   -1.1348  -28.1129   54.7634 H   0  0
   -2.3147  -29.8138   56.1462 H   0  0
   -3.4949  -32.7533   57.5223 H   0  0
   -4.2911  -33.5768   55.7888 H   0  0
   -3.8038  -32.9524   53.9819 H   0  0
   -5.8184  -31.8228   53.8292 H   0  0
   -6.3051  -32.4460   55.6369 H   0  0
   -4.9314  -30.7057   52.8245 H   0  0
   -3.7345  -29.0307   51.4306 H   0  0
   -0.6385  -26.6958   53.8316 H   0  0
    0.3361  -26.8564   52.3434 H   0  0
   -0.3701  -24.4899   52.7960 H   0  0
   -2.0519  -24.9905   52.7091 H   0  0
  1  2  1  0
  2  3  1  0
  2  4  1  0
  4  5  2  0
  4  9  1  0
  5  6  1  0
  6  7  2  0
  7  8  1  0
  8  9  2  0
  9 10  1  0
 10 11  1  0
 10 20  1  0
 10 36  1  0
 11 12  2  0
 11 13  1  0
 13 14  1  0
 14 15  2  0
 14 19  1  0
 15 16  1  0
 16 17  2  0
 17 18  1  0
 18 19  2  0
 20 21  1  0
 21 22  1  0
 22 23  1  0
 22 35  1  0
 23 24  2  0
 23 34  1  0
 24 25  1  0
 25 26  2  0
 26 27  1  0
 26 33  1  0
 27 28  1  0
 27 31  1  0
 27 32  1  0
 28 29  2  0
 28 30  1  0
 31 32  1  0
 33 34  2  0
 35 36  1  0
  1 37  1  0
  1 38  1  0
  1 39  1  0
  2 40  1  0
  3 41  1  0
  3 42  1  0
  3 43  1  0
  5 44  1  0
  6 45  1  0
  7 46  1  0
  8 47  1  0
 13 48  1  0
 15 49  1  0
 17 50  1  0
 18 51  1  0
 20 52  1  0
 20 53  1  0
 21 54  1  0
 21 55  1  0
 24 56  1  0
 25 57  1  0
 30 58  1  0
 31 59  1  0
 31 60  1  0
 32 61  1  0
 32 62  1  0
 33 63  1  0
 34 64  1  0
 35 65  1  0
 35 66  1  0
 36 67  1  0
 36 68  1  0
M  END
> <Name>
Molecule

> <AbsoluteEnergy>
73.3799

> <Clean Energy>
198.799

> <ConfNumber>
51

> <MOL_NUMBER>
8

> <RelativeEnergy>
11.8309

> <POSE_NUMBER>
1

> <LibDockScore>
137.0531

> <HotSpots>
2.67,-22.92,49.98,A,39,6
-6.13,-22.12,49.98,A,41,18
-4.33,-32.92,55.19,A,75,31

$$$$
Molecule
  SciTegic05072616053D

 68 72  0  0  0  0            999 V2000
   -5.8030  -21.7601   45.7022 C   0  0  0  1  0  0
   -5.0605  -22.6616   46.7140 C   0  0  0  1  0  0
   -5.2758  -24.1529   46.3875 C   0  0  0  1  0  0
   -3.5888  -22.3261   46.8358 C   0  0  0  1  0  0
   -3.0331  -21.6039   45.7526 C   0  0  0  1  0  0
   -1.7153  -21.1396   45.7789 C   0  0  0  1  0  0
   -0.9197  -21.3909   46.8963 C   0  0  0  1  0  0
   -1.4318  -22.1413   47.9614 C   0  0  0  1  0  0
   -2.7477  -22.6813   47.9511 C   0  0  0  1  0  0
   -3.1646  -23.5943   49.1292 C   0  0  0  1  0  0
   -2.1089  -23.6298   50.2563 C   0  0  0  1  0  0
   -2.3730  -23.1704   51.3467 O   0  0  0  1  0  0
   -0.8651  -24.2038   50.0196 N   0  0  0  1  0  0
    0.1430  -24.3841   50.9488 C   0  0  0  1  0  0
   -0.0909  -24.2487   52.3425 C   0  0  0  1  0  0
    0.9086  -24.4572   53.2447 N   0  0  0  1  0  0
    2.1492  -24.7898   52.7854 C   0  0  0  1  0  0
    2.3915  -24.9252   51.4029 C   0  0  0  1  0  0
    1.3906  -24.7267   50.4988 N   0  0  0  1  0  0
   -4.5211  -23.1153   49.7184 C   0  0  0  1  0  0
   -5.1168  -23.9947   50.8441 C   0  0  0  1  0  0
   -4.8293  -25.4629   50.7621 N   0  0  0  1  0  0
   -5.6046  -26.3577   51.4831 C   0  0  0  1  0  0
   -5.1142  -27.6569   51.7296 C   0  0  0  1  0  0
   -5.8733  -28.5795   52.4662 C   0  0  0  1  0  0
   -7.1449  -28.2221   52.9555 C   0  0  0  1  0  0
   -7.9912  -29.2154   53.7191 C   0  0  0  1  0  0
   -7.7735  -29.1786   55.2294 C   0  0  0  1  0  0
   -6.8198  -29.7577   55.6975 O   0  0  0  1  0  0
   -8.6297  -28.5219   56.0147 O   0  0  0  1  0  0
   -8.3241  -30.5718   53.1121 C   0  0  0  1  0  0
   -9.3806  -29.4965   53.1608 C   0  0  0  1  0  0
   -7.6365  -26.9231   52.7201 C   0  0  0  1  0  0
   -6.8744  -25.9984   51.9845 C   0  0  0  1  0  0
   -3.6728  -25.9769   49.9656 C   0  0  0  1  0  0
   -3.3521  -25.0947   48.7460 C   0  0  0  1  0  0
   -6.8675  -21.9913   45.7400 H   0  0
   -5.4278  -21.9716   44.7009 H   0  0
   -5.6420  -20.7098   45.9452 H   0  0
   -5.4979  -22.4597   47.6918 H   0  0
   -4.9037  -24.3503   45.3822 H   0  0
   -6.3434  -24.3699   46.4212 H   0  0
   -4.7469  -24.7762   47.1086 H   0  0
   -3.6489  -21.4048   44.8755 H   0  0
   -1.3120  -20.5848   44.9318 H   0  0
    0.0984  -21.0040   46.9403 H   0  0
   -0.7987  -22.3183   48.8308 H   0  0
   -0.6689  -24.5383   49.0224 H   0  0
   -1.0847  -23.9739   52.6960 H   0  0
    2.9613  -24.9525   53.4940 H   0  0
    3.3891  -25.1913   51.0535 H   0  0
   -4.3941  -22.1028   50.1017 H   0  0
   -5.2482  -23.0515   48.9089 H   0  0
   -4.7493  -23.6262   51.8019 H   0  0
   -6.1980  -23.8573   50.8560 H   0  0
   -4.1367  -27.9472   51.3445 H   0  0
   -5.4773  -29.5763   52.6603 H   0  0
   -9.5654  -28.9455   55.7968 H   0  0
   -8.4819  -31.3266   53.8825 H   0  0
   -7.9015  -30.6764   52.1128 H   0  0
   -9.5226  -29.0270   52.1874 H   0  0
  -10.1020  -29.6762   53.9579 H   0  0
   -8.6123  -26.6335   53.1101 H   0  0
   -7.2664  -24.9981   51.8003 H   0  0
   -3.8978  -26.9870   49.6232 H   0  0
   -2.7939  -26.0268   50.6083 H   0  0
   -2.4396  -25.4595   48.2744 H   0  0
   -4.1640  -25.1790   48.0236 H   0  0
  1  2  1  0
  2  3  1  0
  2  4  1  0
  4  5  2  0
  4  9  1  0
  5  6  1  0
  6  7  2  0
  7  8  1  0
  8  9  2  0
  9 10  1  0
 10 11  1  0
 10 20  1  0
 10 36  1  0
 11 12  2  0
 11 13  1  0
 13 14  1  0
 14 15  2  0
 14 19  1  0
 15 16  1  0
 16 17  2  0
 17 18  1  0
 18 19  2  0
 20 21  1  0
 21 22  1  0
 22 23  1  0
 22 35  1  0
 23 24  2  0
 23 34  1  0
 24 25  1  0
 25 26  2  0
 26 27  1  0
 26 33  1  0
 27 28  1  0
 27 31  1  0
 27 32  1  0
 28 29  2  0
 28 30  1  0
 31 32  1  0
 33 34  2  0
 35 36  1  0
  1 37  1  0
  1 38  1  0
  1 39  1  0
  2 40  1  0
  3 41  1  0
  3 42  1  0
  3 43  1  0
  5 44  1  0
  6 45  1  0
  7 46  1  0
  8 47  1  0
 13 48  1  0
 15 49  1  0
 17 50  1  0
 18 51  1  0
 20 52  1  0
 20 53  1  0
 21 54  1  0
 21 55  1  0
 24 56  1  0
 25 57  1  0
 30 58  1  0
 31 59  1  0
 31 60  1  0
 32 61  1  0
 32 62  1  0
 33 63  1  0
 34 64  1  0
 35 65  1  0
 35 66  1  0
 36 67  1  0
 36 68  1  0
M  END
> <Name>
Molecule

> <AbsoluteEnergy>
72.9161

> <Clean Energy>
198.799

> <ConfNumber>
48

> <MOL_NUMBER>
8

> <RelativeEnergy>
11.3671

> <POSE_NUMBER>
2

> <LibDockScore>
136.6448

> <HotSpots>
-4.33,-26.12,45.19,A,10,3
-1.73,-21.72,46.78,A,24,7
2.27,-24.92,52.19,A,58,17

$$$$
Molecule
  SciTegic05072616053D

 68 72  0  0  0  0            999 V2000
   -2.0690  -24.4435   47.3358 C   0  0  0  1  0  0
   -3.5246  -24.9138   47.5274 C   0  0  0  1  0  0
   -4.2306  -24.8826   46.1501 C   0  0  0  1  0  0
   -4.2215  -24.1618   48.6526 C   0  0  0  1  0  0
   -5.3614  -23.3945   48.2959 C   0  0  0  1  0  0
   -6.0635  -22.6293   49.2284 C   0  0  0  1  0  0
   -5.6349  -22.5938   50.5516 C   0  0  0  1  0  0
   -4.5163  -23.3384   50.9364 C   0  0  0  1  0  0
   -3.7966  -24.1691   50.0351 C   0  0  0  1  0  0
   -2.6139  -24.9719   50.6413 C   0  0  0  1  0  0
   -1.2890  -24.2332   50.3695 C   0  0  0  1  0  0
   -1.2997  -23.1593   49.8057 O   0  0  0  1  0  0
   -0.0840  -24.7968   50.7757 N   0  0  0  1  0  0
    1.2054  -24.3718   50.4706 C   0  0  0  1  0  0
    2.3029  -24.9934   51.1216 C   0  0  0  1  0  0
    3.5886  -24.6166   50.8645 N   0  0  0  1  0  0
    3.8095  -23.6196   49.9629 C   0  0  0  1  0  0
    2.7313  -22.9913   49.3070 C   0  0  0  1  0  0
    1.4465  -23.3708   49.5638 N   0  0  0  1  0  0
   -2.5143  -26.4593   50.1762 C   0  0  0  1  0  0
   -3.7660  -27.3010   50.5213 C   0  0  0  1  0  0
   -3.9914  -27.2835   51.9912 N   0  0  0  1  0  0
   -4.1379  -28.4510   52.7252 C   0  0  0  1  0  0
   -4.7541  -29.5859   52.1574 C   0  0  0  1  0  0
   -4.8896  -30.7698   52.9001 C   0  0  0  1  0  0
   -4.4057  -30.8547   54.2253 C   0  0  0  1  0  0
   -4.5332  -32.1452   55.0333 C   0  0  0  1  0  0
   -3.7710  -33.3361   54.4631 C   0  0  0  1  0  0
   -3.8611  -33.5852   53.2829 O   0  0  0  1  0  0
   -3.0207  -34.0693   55.2837 O   0  0  0  1  0  0
   -5.8432  -32.4406   55.7500 C   0  0  0  1  0  0
   -4.6071  -32.1128   56.5547 C   0  0  0  1  0  0
   -3.7992  -29.7124   54.7895 C   0  0  0  1  0  0
   -3.6644  -28.5270   54.0507 C   0  0  0  1  0  0
   -4.0096  -25.9353   52.6228 C   0  0  0  1  0  0
   -2.7625  -25.1340   52.2012 C   0  0  0  1  0  0
   -2.0532  -23.4261   46.9448 H   0  0
   -1.5483  -25.1097   46.6479 H   0  0
   -1.5608  -24.4611   48.2999 H   0  0
   -3.5628  -25.9466   47.8739 H   0  0
   -3.7234  -25.5515   45.4548 H   0  0
   -4.2283  -23.8680   45.7517 H   0  0
   -5.2619  -25.2135   46.2726 H   0  0
   -5.6994  -23.4032   47.2597 H   0  0
   -6.9427  -22.0627   48.9217 H   0  0
   -6.1686  -21.9885   51.2843 H   0  0
   -4.1815  -23.2795   51.9721 H   0  0
   -0.1575  -25.6633   51.3991 H   0  0
    2.1144  -25.7889   51.8425 H   0  0
    4.8302  -23.3044   49.7464 H   0  0
    2.9260  -22.1952   48.5883 H   0  0
   -2.3613  -26.4823   49.0972 H   0  0
   -1.6424  -26.9183   50.6423 H   0  0
   -4.6361  -26.8814   50.0163 H   0  0
   -3.6162  -28.3286   50.1902 H   0  0
   -5.1279  -29.5434   51.1344 H   0  0
   -5.3746  -31.6352   52.4484 H   0  0
   -3.6736  -34.3907   56.0406 H   0  0
   -6.0600  -33.5087   55.7631 H   0  0
   -6.5264  -31.5928   55.6989 H   0  0
   -4.6322  -31.0905   56.9320 H   0  0
   -4.1649  -33.0065   56.9949 H   0  0
   -3.4300  -29.7513   55.8143 H   0  0
   -3.1896  -27.6577   54.5056 H   0  0
   -4.0197  -26.0431   53.7074 H   0  0
   -4.9058  -25.4006   52.3081 H   0  0
   -2.8096  -24.1451   52.6571 H   0  0
   -1.8754  -25.6336   52.5905 H   0  0
  1  2  1  0
  2  3  1  0
  2  4  1  0
  4  5  2  0
  4  9  1  0
  5  6  1  0
  6  7  2  0
  7  8  1  0
  8  9  2  0
  9 10  1  0
 10 11  1  0
 10 20  1  0
 10 36  1  0
 11 12  2  0
 11 13  1  0
 13 14  1  0
 14 15  2  0
 14 19  1  0
 15 16  1  0
 16 17  2  0
 17 18  1  0
 18 19  2  0
 20 21  1  0
 21 22  1  0
 22 23  1  0
 22 35  1  0
 23 24  2  0
 23 34  1  0
 24 25  1  0
 25 26  2  0
 26 27  1  0
 26 33  1  0
 27 28  1  0
 27 31  1  0
 27 32  1  0
 28 29  2  0
 28 30  1  0
 31 32  1  0
 33 34  2  0
 35 36  1  0
  1 37  1  0
  1 38  1  0
  1 39  1  0
  2 40  1  0
  3 41  1  0
  3 42  1  0
  3 43  1  0
  5 44  1  0
  6 45  1  0
  7 46  1  0
  8 47  1  0
 13 48  1  0
 15 49  1  0
 17 50  1  0
 18 51  1  0
 20 52  1  0
 20 53  1  0
 21 54  1  0
 21 55  1  0
 24 56  1  0
 25 57  1  0
 30 58  1  0
 31 59  1  0
 31 60  1  0
 32 61  1  0
 32 62  1  0
 33 63  1  0
 34 64  1  0
 35 65  1  0
 35 66  1  0
 36 67  1  0
 36 68  1  0
M  END
> <Name>
Molecule

> <AbsoluteEnergy>
76.1046

> <Clean Energy>
198.799

> <ConfNumber>
73

> <MOL_NUMBER>
8

> <RelativeEnergy>
14.5556

> <POSE_NUMBER>
3

> <LibDockScore>
136.04

> <HotSpots>
-4.93,-23.52,47.59,A,26,5
3.07,-24.52,50.38,A,43,15
-4.13,-31.12,56.59,A,79,31

$$$$
Molecule
  SciTegic05072616053D

 68 72  0  0  0  0            999 V2000
    1.1053  -26.1124   47.7738 C   0  0  0  1  0  0
    0.5018  -24.7768   48.2510 C   0  0  0  1  0  0
    1.1790  -23.5840   47.5474 C   0  0  0  1  0  0
    0.5424  -24.6331   49.7585 C   0  0  0  1  0  0
    1.8101  -24.7579   50.3698 C   0  0  0  1  0  0
    1.9719  -24.5827   51.7485 C   0  0  0  1  0  0
    0.8721  -24.2384   52.5357 C   0  0  0  1  0  0
   -0.3928  -24.1112   51.9514 C   0  0  0  1  0  0
   -0.6092  -24.3789   50.5760 C   0  0  0  1  0  0
   -2.0408  -24.4050   50.0165 C   0  0  0  1  0  0
   -2.1919  -23.4274   48.8298 C   0  0  0  1  0  0
   -1.3440  -22.5827   48.6356 O   0  0  0  1  0  0
   -3.2985  -23.5322   47.9930 N   0  0  0  1  0  0
   -3.6904  -22.6987   46.9428 C   0  0  0  1  0  0
   -2.9346  -21.5879   46.4715 C   0  0  0  1  0  0
   -3.3810  -20.8150   45.4379 N   0  0  0  1  0  0
   -4.5688  -21.1218   44.8486 C   0  0  0  1  0  0
   -5.3287  -22.2194   45.2978 C   0  0  0  1  0  0
   -4.8843  -22.9903   46.3306 N   0  0  0  1  0  0
   -3.1435  -23.9682   51.0559 C   0  0  0  1  0  0
   -3.4329  -24.9502   52.2237 C   0  0  0  1  0  0
   -3.5772  -26.3247   51.7082 N   0  0  0  1  0  0
   -4.7040  -27.0733   51.9365 C   0  0  0  1  0  0
   -5.8866  -26.3972   52.2877 C   0  0  0  1  0  0
   -7.0734  -27.1163   52.4860 C   0  0  0  1  0  0
   -7.0839  -28.5138   52.3249 C   0  0  0  1  0  0
   -8.3746  -29.2718   52.4731 C   0  0  0  1  0  0
   -8.8379  -29.8303   51.1372 C   0  0  0  1  0  0
   -8.4118  -30.9043   50.7791 O   0  0  0  1  0  0
   -9.6828  -29.1196   50.3880 O   0  0  0  1  0  0
   -8.6562  -30.0627   53.7412 C   0  0  0  1  0  0
   -9.4155  -28.7864   53.4683 C   0  0  0  1  0  0
   -5.8925  -29.1958   52.0083 C   0  0  0  1  0  0
   -4.6999  -28.4788   51.8155 C   0  0  0  1  0  0
   -2.4911  -26.8262   50.8454 C   0  0  0  1  0  0
   -2.3688  -25.8937   49.6292 C   0  0  0  1  0  0
    2.1724  -26.1165   47.9960 H   0  0
    0.9650  -26.1977   46.6962 H   0  0
    0.6179  -26.9465   48.2786 H   0  0
   -0.5513  -24.7794   47.9697 H   0  0
    1.0383  -23.6833   46.4711 H   0  0
    2.2457  -23.6021   47.7708 H   0  0
    0.7432  -22.6469   47.8937 H   0  0
    2.6787  -24.9952   49.7555 H   0  0
    2.9526  -24.7145   52.2057 H   0  0
    0.9985  -24.0687   53.6050 H   0  0
   -1.2340  -23.7981   52.5698 H   0  0
   -3.9392  -24.3685   48.1802 H   0  0
   -1.9819  -21.3500   46.9445 H   0  0
   -4.9351  -20.5130   44.0220 H   0  0
   -6.2782  -22.4539   44.8165 H   0  0
   -2.8545  -23.0068   51.4806 H   0  0
   -4.0750  -23.7928   50.5176 H   0  0
   -2.6094  -24.9169   52.9371 H   0  0
   -4.3539  -24.6549   52.7263 H   0  0
   -5.8801  -25.3136   52.4057 H   0  0
   -7.9879  -26.5928   52.7649 H   0  0
   -9.2051  -28.1957   50.2442 H   0  0
   -7.8753  -29.9144   54.4870 H   0  0
   -9.2638  -30.9440   53.5358 H   0  0
  -10.4281  -28.9879   53.1189 H   0  0
   -9.0390  -27.9582   54.0687 H   0  0
   -5.8961  -30.2816   51.9128 H   0  0
   -3.7767  -29.0054   51.5738 H   0  0
   -2.7258  -27.8361   50.5090 H   0  0
   -1.5531  -26.8274   51.4005 H   0  0
   -1.5840  -26.2710   48.9736 H   0  0
   -3.3054  -25.9164   49.0721 H   0  0
  1  2  1  0
  2  3  1  0
  2  4  1  0
  4  5  2  0
  4  9  1  0
  5  6  1  0
  6  7  2  0
  7  8  1  0
  8  9  2  0
  9 10  1  0
 10 11  1  0
 10 20  1  0
 10 36  1  0
 11 12  2  0
 11 13  1  0
 13 14  1  0
 14 15  2  0
 14 19  1  0
 15 16  1  0
 16 17  2  0
 17 18  1  0
 18 19  2  0
 20 21  1  0
 21 22  1  0
 22 23  1  0
 22 35  1  0
 23 24  2  0
 23 34  1  0
 24 25  1  0
 25 26  2  0
 26 27  1  0
 26 33  1  0
 27 28  1  0
 27 31  1  0
 27 32  1  0
 28 29  2  0
 28 30  1  0
 31 32  1  0
 33 34  2  0
 35 36  1  0
  1 37  1  0
  1 38  1  0
  1 39  1  0
  2 40  1  0
  3 41  1  0
  3 42  1  0
  3 43  1  0
  5 44  1  0
  6 45  1  0
  7 46  1  0
  8 47  1  0
 13 48  1  0
 15 49  1  0
 17 50  1  0
 18 51  1  0
 20 52  1  0
 20 53  1  0
 21 54  1  0
 21 55  1  0
 24 56  1  0
 25 57  1  0
 30 58  1  0
 31 59  1  0
 31 60  1  0
 32 61  1  0
 32 62  1  0
 33 63  1  0
 34 64  1  0
 35 65  1  0
 35 66  1  0
 36 67  1  0
 36 68  1  0
M  END
> <Name>
Molecule

> <AbsoluteEnergy>
71.253

> <Clean Energy>
198.799

> <ConfNumber>
34

> <MOL_NUMBER>
8

> <RelativeEnergy>
9.70398

> <POSE_NUMBER>
4

> <LibDockScore>
135.9164

> <HotSpots>
1.67,-24.32,50.98,A,50,7
-5.93,-22.12,45.59,A,14,18
-8.73,-28.12,54.38,A,70,32

$$$$
Molecule
  SciTegic05072616053D

 68 72  0  0  0  0            999 V2000
    1.3117  -23.4902   47.7786 C   0  0  0  1  0  0
    0.7005  -24.7344   48.4541 C   0  0  0  1  0  0
    1.3791  -26.0230   47.9445 C   0  0  0  1  0  0
    0.7413  -24.6395   49.9643 C   0  0  0  1  0  0
    2.0252  -24.6440   50.5583 C   0  0  0  1  0  0
    2.1879  -24.5321   51.9430 C   0  0  0  1  0  0
    1.0652  -24.3979   52.7610 C   0  0  0  1  0  0
   -0.2131  -24.3901   52.1948 C   0  0  0  1  0  0
   -0.4245  -24.5441   50.7994 C   0  0  0  1  0  0
   -1.8611  -24.6011   50.2449 C   0  0  0  1  0  0
   -2.0717  -23.5620   49.1183 C   0  0  0  1  0  0
   -1.2615  -22.6789   48.9304 O   0  0  0  1  0  0
   -3.2137  -23.6423   48.3280 N   0  0  0  1  0  0
   -3.5898  -22.8309   47.2626 C   0  0  0  1  0  0
   -4.8800  -23.0203   46.7001 C   0  0  0  1  0  0
   -5.3256  -22.2539   45.6669 N   0  0  0  1  0  0
   -4.5033  -21.2885   45.1665 C   0  0  0  1  0  0
   -3.2166  -21.0885   45.7073 C   0  0  0  1  0  0
   -2.7700  -21.8570   46.7454 N   0  0  0  1  0  0
   -2.1696  -26.0685   49.7577 C   0  0  0  1  0  0
   -2.3858  -27.0899   50.8902 C   0  0  0  1  0  0
   -3.4885  -26.6040   51.7394 N   0  0  0  1  0  0
   -4.6957  -27.2602   51.8488 C   0  0  0  1  0  0
   -5.8488  -26.4998   52.1310 C   0  0  0  1  0  0
   -7.0865  -27.1309   52.3122 C   0  0  0  1  0  0
   -7.1852  -28.5321   52.2096 C   0  0  0  1  0  0
   -8.4991  -29.2308   52.4837 C   0  0  0  1  0  0
   -9.0673  -28.9153   53.8705 C   0  0  0  1  0  0
   -9.2327  -27.7566   54.1889 O   0  0  0  1  0  0
   -9.3658  -29.9179   54.7034 O   0  0  0  1  0  0
   -8.7084  -30.6241   51.9126 C   0  0  0  1  0  0
   -9.4717  -29.4560   51.3357 C   0  0  0  1  0  0
   -6.0465  -29.2887   51.8691 C   0  0  0  1  0  0
   -4.8018  -28.6583   51.6914 C   0  0  0  1  0  0
   -3.2441  -25.3081   52.3999 C   0  0  0  1  0  0
   -2.9520  -24.2329   51.3308 C   0  0  0  1  0  0
    1.1763  -23.5709   46.7000 H   0  0
    2.3777  -23.4535   48.0031 H   0  0
    0.8246  -22.5871   48.1464 H   0  0
   -0.3522  -24.7763   48.1744 H   0  0
    2.4448  -25.9738   48.1682 H   0  0
    1.2434  -26.0912   46.8651 H   0  0
    0.9389  -26.8947   48.4288 H   0  0
    2.9064  -24.7366   49.9234 H   0  0
    3.1860  -24.5496   52.3807 H   0  0
    1.1848  -24.2993   53.8399 H   0  0
   -1.0769  -24.2614   52.8470 H   0  0
   -3.8925  -24.4327   48.5719 H   0  0
   -5.5285  -23.7973   47.1050 H   0  0
   -4.8440  -20.6649   44.3400 H   0  0
   -2.5718  -20.3133   45.2933 H   0  0
   -1.3456  -26.4115   49.1320 H   0  0
   -3.0611  -26.0494   49.1308 H   0  0
   -1.4765  -27.1772   51.4849 H   0  0
   -2.6499  -28.0582   50.4651 H   0  0
   -5.7771  -25.4149   52.2086 H   0  0
   -7.9736  -26.5371   52.5327 H   0  0
   -8.4744  -30.4650   54.7965 H   0  0
   -9.3364  -31.2331   52.5629 H   0  0
   -7.8803  -30.9208   51.2690 H   0  0
   -9.0503  -29.1305   50.3846 H   0  0
  -10.5059  -29.4418   51.6797 H   0  0
   -6.1306  -30.3681   51.7427 H   0  0
   -3.9222  -29.2478   51.4330 H   0  0
   -4.1256  -25.0201   52.9727 H   0  0
   -2.3883  -25.3958   53.0692 H   0  0
   -2.6406  -23.3198   51.8381 H   0  0
   -3.8846  -23.9956   50.8189 H   0  0
  1  2  1  0
  2  3  1  0
  2  4  1  0
  4  5  2  0
  4  9  1  0
  5  6  1  0
  6  7  2  0
  7  8  1  0
  8  9  2  0
  9 10  1  0
 10 11  1  0
 10 20  1  0
 10 36  1  0
 11 12  2  0
 11 13  1  0
 13 14  1  0
 14 15  2  0
 14 19  1  0
 15 16  1  0
 16 17  2  0
 17 18  1  0
 18 19  2  0
 20 21  1  0
 21 22  1  0
 22 23  1  0
 22 35  1  0
 23 24  2  0
 23 34  1  0
 24 25  1  0
 25 26  2  0
 26 27  1  0
 26 33  1  0
 27 28  1  0
 27 31  1  0
 27 32  1  0
 28 29  2  0
 28 30  1  0
 31 32  1  0
 33 34  2  0
 35 36  1  0
  1 37  1  0
  1 38  1  0
  1 39  1  0
  2 40  1  0
  3 41  1  0
  3 42  1  0
  3 43  1  0
  5 44  1  0
  6 45  1  0
  7 46  1  0
  8 47  1  0
 13 48  1  0
 15 49  1  0
 17 50  1  0
 18 51  1  0
 20 52  1  0
 20 53  1  0
 21 54  1  0
 21 55  1  0
 24 56  1  0
 25 57  1  0
 30 58  1  0
 31 59  1  0
 31 60  1  0
 32 61  1  0
 32 62  1  0
 33 63  1  0
 34 64  1  0
 35 65  1  0
 35 66  1  0
 36 67  1  0
 36 68  1  0
M  END
> <Name>
Molecule

> <AbsoluteEnergy>
71.0082

> <Clean Energy>
198.799

> <ConfNumber>
33

> <MOL_NUMBER>
8

> <RelativeEnergy>
9.4592

> <POSE_NUMBER>
5

> <LibDockScore>
135.2205

> <HotSpots>
1.67,-24.32,50.98,A,50,5
-4.93,-21.52,45.19,A,11,17
-9.33,-29.92,51.19,A,52,32

$$$$
Molecule
  SciTegic05072616053D

 68 72  0  0  0  0            999 V2000
    1.4676  -23.6036   47.6527 C   0  0  0  1  0  0
    0.7200  -24.7475   48.3672 C   0  0  0  1  0  0
    1.2412  -26.1209   47.8953 C   0  0  0  1  0  0
    0.7807  -24.6129   49.8737 C   0  0  0  1  0  0
    2.0719  -24.6130   50.4517 C   0  0  0  1  0  0
    2.2530  -24.4658   51.8308 C   0  0  0  1  0  0
    1.1419  -24.3001   52.6588 C   0  0  0  1  0  0
   -0.1434  -24.2961   52.1084 C   0  0  0  1  0  0
   -0.3736  -24.4851   50.7203 C   0  0  0  1  0  0
   -1.8175  -24.5442   50.1854 C   0  0  0  1  0  0
   -2.0404  -23.5163   49.0509 C   0  0  0  1  0  0
   -1.2333  -22.6339   48.8467 O   0  0  0  1  0  0
   -3.1897  -23.6058   48.2723 N   0  0  0  1  0  0
   -3.5871  -22.7927   47.2160 C   0  0  0  1  0  0
   -4.8603  -23.0281   46.6325 C   0  0  0  1  0  0
   -5.3255  -22.2636   45.6066 N   0  0  0  1  0  0
   -4.5399  -21.2543   45.1344 C   0  0  0  1  0  0
   -3.2705  -21.0081   45.6964 C   0  0  0  1  0  0
   -2.8042  -21.7748   46.7271 N   0  0  0  1  0  0
   -2.1360  -26.0158   49.7177 C   0  0  0  1  0  0
   -2.3398  -27.0248   50.8635 C   0  0  0  1  0  0
   -3.4300  -26.5272   51.7219 N   0  0  0  1  0  0
   -4.6373  -27.1792   51.8540 C   0  0  0  1  0  0
   -5.7940  -26.4073   52.0856 C   0  0  0  1  0  0
   -7.0325  -27.0305   52.2878 C   0  0  0  1  0  0
   -7.1283  -28.4352   52.2572 C   0  0  0  1  0  0
   -8.4438  -29.1213   52.5550 C   0  0  0  1  0  0
   -8.9854  -28.7979   53.9505 C   0  0  0  1  0  0
   -9.0835  -27.6373   54.2892 O   0  0  0  1  0  0
   -9.3351  -29.7961   54.7687 O   0  0  0  1  0  0
   -8.6755  -30.5137   51.9903 C   0  0  0  1  0  0
   -9.4377  -29.3397   51.4240 C   0  0  0  1  0  0
   -5.9854  -29.2064   51.9670 C   0  0  0  1  0  0
   -4.7399  -28.5837   51.7684 C   0  0  0  1  0  0
   -3.1738  -25.2252   52.3656 C   0  0  0  1  0  0
   -2.8932  -24.1619   51.2816 C   0  0  0  1  0  0
    1.3173  -23.7001   46.5774 H   0  0
    2.5320  -23.6845   47.8734 H   0  0
    1.0909  -22.6394   47.9941 H   0  0
   -0.3321  -24.6750   48.0915 H   0  0
    2.3067  -26.1894   48.1148 H   0  0
    1.0920  -26.2050   46.8188 H   0  0
    0.7056  -26.9206   48.4069 H   0  0
    2.9442  -24.7303   49.8087 H   0  0
    3.2564  -24.4804   52.2564 H   0  0
    1.2759  -24.1740   53.7332 H   0  0
   -0.9978  -24.1426   52.7676 H   0  0
   -3.8561  -24.4059   48.5185 H   0  0
   -5.4794  -23.8397   47.0149 H   0  0
   -4.8968  -20.6315   44.3142 H   0  0
   -2.6549  -20.1982   45.3049 H   0  0
   -1.3212  -26.3674   49.0848 H   0  0
   -3.0356  -26.0009   49.1023 H   0  0
   -1.4230  -27.1083   51.4471 H   0  0
   -2.6118  -27.9968   50.4520 H   0  0
   -5.7245  -25.3197   52.1075 H   0  0
   -7.9224  -26.4277   52.4689 H   0  0
   -8.4754  -30.3939   54.8468 H   0  0
   -9.2980  -31.1157   52.6523 H   0  0
   -7.8611  -30.8192   51.3334 H   0  0
   -9.0294  -29.0198   50.4653 H   0  0
  -10.4657  -29.3153   51.7854 H   0  0
   -6.0668  -30.2910   51.8960 H   0  0
   -3.8570  -29.1842   51.5491 H   0  0
   -4.0470  -24.9290   52.9469 H   0  0
   -2.3095  -25.3081   53.0245 H   0  0
   -2.5729  -23.2444   51.7752 H   0  0
   -3.8319  -23.9276   50.7795 H   0  0
  1  2  1  0
  2  3  1  0
  2  4  1  0
  4  5  2  0
  4  9  1  0
  5  6  1  0
  6  7  2  0
  7  8  1  0
  8  9  2  0
  9 10  1  0
 10 11  1  0
 10 20  1  0
 10 36  1  0
 11 12  2  0
 11 13  1  0
 13 14  1  0
 14 15  2  0
 14 19  1  0
 15 16  1  0
 16 17  2  0
 17 18  1  0
 18 19  2  0
 20 21  1  0
 21 22  1  0
 22 23  1  0
 22 35  1  0
 23 24  2  0
 23 34  1  0
 24 25  1  0
 25 26  2  0
 26 27  1  0
 26 33  1  0
 27 28  1  0
 27 31  1  0
 27 32  1  0
 28 29  2  0
 28 30  1  0
 31 32  1  0
 33 34  2  0
 35 36  1  0
  1 37  1  0
  1 38  1  0
  1 39  1  0
  2 40  1  0
  3 41  1  0
  3 42  1  0
  3 43  1  0
  5 44  1  0
  6 45  1  0
  7 46  1  0
  8 47  1  0
 13 48  1  0
 15 49  1  0
 17 50  1  0
 18 51  1  0
 20 52  1  0
 20 53  1  0
 21 54  1  0
 21 55  1  0
 24 56  1  0
 25 57  1  0
 30 58  1  0
 31 59  1  0
 31 60  1  0
 32 61  1  0
 32 62  1  0
 33 63  1  0
 34 64  1  0
 35 65  1  0
 35 66  1  0
 36 67  1  0
 36 68  1  0
M  END
> <Name>
Molecule

> <AbsoluteEnergy>
71.0082

> <Clean Energy>
198.799

> <ConfNumber>
33

> <MOL_NUMBER>
8

> <RelativeEnergy>
9.4592

> <POSE_NUMBER>
6

> <LibDockScore>
135.0491

> <HotSpots>
0.27,-24.92,46.38,A,19,1
-6.33,-26.32,51.98,A,57,24
-9.53,-30.12,52.78,A,62,31

$$$$
Molecule
  SciTegic05072616053D

 68 72  0  0  0  0            999 V2000
    1.9683  -25.6731   52.9263 C   0  0  0  1  0  0
    0.8405  -24.8933   52.2138 C   0  0  0  1  0  0
    0.4670  -23.6204   52.9993 C   0  0  0  1  0  0
    1.1609  -24.5799   50.7673 C   0  0  0  1  0  0
    2.4502  -24.0475   50.5266 C   0  0  0  1  0  0
    2.9159  -23.8091   49.2307 C   0  0  0  1  0  0
    2.0955  -24.0990   48.1409 C   0  0  0  1  0  0
    0.7997  -24.5842   48.3542 C   0  0  0  1  0  0
    0.2657  -24.7870   49.6567 C   0  0  0  1  0  0
   -1.2178  -25.2128   49.7726 C   0  0  0  1  0  0
   -2.0537  -24.7962   48.5422 C   0  0  0  1  0  0
   -2.6884  -25.6297   47.9322 O   0  0  0  1  0  0
   -2.0873  -23.4631   48.1495 N   0  0  0  1  0  0
   -2.9209  -22.9125   47.1933 C   0  0  0  1  0  0
   -4.0880  -23.5833   46.7425 C   0  0  0  1  0  0
   -4.9123  -23.0128   45.8197 N   0  0  0  1  0  0
   -4.5916  -21.7832   45.3237 C   0  0  0  1  0  0
   -3.4337  -21.1099   45.7644 C   0  0  0  1  0  0
   -2.6128  -21.6745   46.6948 N   0  0  0  1  0  0
   -1.3157  -26.7534   49.9555 C   0  0  0  1  0  0
   -2.7386  -27.3172   50.1858 C   0  0  0  1  0  0
   -3.6939  -26.4282   50.9218 N   0  0  0  1  0  0
   -4.8356  -26.9678   51.4937 C   0  0  0  1  0  0
   -5.9286  -26.1255   51.7854 C   0  0  0  1  0  0
   -7.1009  -26.6472   52.3542 C   0  0  0  1  0  0
   -7.1933  -28.0201   52.6559 C   0  0  0  1  0  0
   -8.4346  -28.5918   53.3025 C   0  0  0  1  0  0
   -9.2301  -29.5242   52.3928 C   0  0  0  1  0  0
   -9.3200  -29.2575   51.2160 O   0  0  0  1  0  0
   -9.8197  -30.6104   52.8963 O   0  0  0  1  0  0
   -9.2367  -27.7639   54.2975 C   0  0  0  1  0  0
   -8.3527  -28.8794   54.7963 C   0  0  0  1  0  0
   -6.1083  -28.8679   52.3587 C   0  0  0  1  0  0
   -4.9351  -28.3453   51.7864 C   0  0  0  1  0  0
   -3.4710  -24.9512   50.9930 C   0  0  0  1  0  0
   -1.9791  -24.5737   50.9748 C   0  0  0  1  0  0
    1.6294  -25.9478   53.9252 H   0  0
    2.8427  -25.0279   53.0115 H   0  0
    2.2216  -26.5695   52.3603 H   0  0
   -0.0292  -25.5500   52.1946 H   0  0
    1.3503  -22.9874   53.0841 H   0  0
    0.1370  -23.9072   53.9978 H   0  0
   -0.3288  -23.0811   52.4856 H   0  0
    3.0964  -23.8176   51.3738 H   0  0
    3.9135  -23.3994   49.0728 H   0  0
    2.4622  -23.9482   47.1256 H   0  0
    0.1769  -24.8151   47.4899 H   0  0
   -1.4021  -22.7990   48.6338 H   0  0
   -4.3282  -24.5692   47.1404 H   0  0
   -5.2368  -21.3165   44.5793 H   0  0
   -3.1926  -20.1281   45.3570 H   0  0
   -0.8921  -27.2345   49.0739 H   0  0
   -0.6888  -27.0436   50.7986 H   0  0
   -3.1746  -27.5618   49.2172 H   0  0
   -2.6551  -28.2570   50.7317 H   0  0
   -5.8623  -25.0596   51.5671 H   0  0
   -7.9430  -25.9875   52.5633 H   0  0
  -10.4365  -30.2442   53.6631 H   0  0
  -10.2881  -28.0512   54.3007 H   0  0
   -8.7828  -26.7865   54.4609 H   0  0
   -7.4267  -28.4978   55.2265 H   0  0
   -8.9318  -29.7630   55.0648 H   0  0
   -6.1786  -29.9342   52.5734 H   0  0
   -4.0975  -29.0076   51.5675 H   0  0
   -3.9228  -24.5671   51.9076 H   0  0
   -3.9674  -24.4765   50.1467 H   0  0
   -1.8883  -23.4889   50.9190 H   0  0
   -1.5177  -24.9049   51.9051 H   0  0
  1  2  1  0
  2  3  1  0
  2  4  1  0
  4  5  2  0
  4  9  1  0
  5  6  1  0
  6  7  2  0
  7  8  1  0
  8  9  2  0
  9 10  1  0
 10 11  1  0
 10 20  1  0
 10 36  1  0
 11 12  2  0
 11 13  1  0
 13 14  1  0
 14 15  2  0
 14 19  1  0
 15 16  1  0
 16 17  2  0
 17 18  1  0
 18 19  2  0
 20 21  1  0
 21 22  1  0
 22 23  1  0
 22 35  1  0
 23 24  2  0
 23 34  1  0
 24 25  1  0
 25 26  2  0
 26 27  1  0
 26 33  1  0
 27 28  1  0
 27 31  1  0
 27 32  1  0
 28 29  2  0
 28 30  1  0
 31 32  1  0
 33 34  2  0
 35 36  1  0
  1 37  1  0
  1 38  1  0
  1 39  1  0
  2 40  1  0
  3 41  1  0
  3 42  1  0
  3 43  1  0
  5 44  1  0
  6 45  1  0
  7 46  1  0
  8 47  1  0
 13 48  1  0
 15 49  1  0
 17 50  1  0
 18 51  1  0
 20 52  1  0
 20 53  1  0
 21 54  1  0
 21 55  1  0
 24 56  1  0
 25 57  1  0
 30 58  1  0
 31 59  1  0
 31 60  1  0
 32 61  1  0
 32 62  1  0
 33 63  1  0
 34 64  1  0
 35 65  1  0
 35 66  1  0
 36 67  1  0
 36 68  1  0
M  END
> <Name>
Molecule

> <AbsoluteEnergy>
72.9161

> <Clean Energy>
198.799

> <ConfNumber>
48

> <MOL_NUMBER>
8

> <RelativeEnergy>
11.3671

> <POSE_NUMBER>
7

> <LibDockScore>
134.6556

> <HotSpots>
2.67,-23.92,48.98,A,32,6
-4.93,-23.52,47.59,A,26,15
-6.33,-26.32,51.98,A,57,24

$$$$
Molecule
  SciTegic05072616053D

 68 72  0  0  0  0            999 V2000
    1.9435  -25.6713   52.9373 C   0  0  0  1  0  0
    0.8205  -24.8826   52.2272 C   0  0  0  1  0  0
    0.4531  -23.6109   53.0176 C   0  0  0  1  0  0
    1.1438  -24.5649   50.7822 C   0  0  0  1  0  0
    2.4324  -24.0288   50.5461 C   0  0  0  1  0  0
    2.9008  -23.7862   49.2520 C   0  0  0  1  0  0
    2.0838  -24.0754   48.1594 C   0  0  0  1  0  0
    0.7887  -24.5643   48.3682 C   0  0  0  1  0  0
    0.2519  -24.7716   49.6689 C   0  0  0  1  0  0
   -1.2309  -25.2012   49.7800 C   0  0  0  1  0  0
   -2.0652  -24.7812   48.5498 C   0  0  0  1  0  0
   -2.7132  -25.6099   47.9472 O   0  0  0  1  0  0
   -2.0822  -23.4503   48.1487 N   0  0  0  1  0  0
   -2.9154  -22.8935   47.1958 C   0  0  0  1  0  0
   -4.1020  -23.5443   46.7672 C   0  0  0  1  0  0
   -4.9251  -22.9673   45.8473 N   0  0  0  1  0  0
   -4.5842  -21.7510   45.3324 C   0  0  0  1  0  0
   -3.4068  -21.0976   45.7509 C   0  0  0  1  0  0
   -2.5869  -21.6685   46.6784 N   0  0  0  1  0  0
   -1.3256  -26.7428   49.9560 C   0  0  0  1  0  0
   -2.7476  -27.3109   50.1811 C   0  0  0  1  0  0
   -3.7064  -26.4272   50.9191 N   0  0  0  1  0  0
   -4.8479  -26.9719   51.4864 C   0  0  0  1  0  0
   -5.9406  -26.1322   51.7864 C   0  0  0  1  0  0
   -7.1128  -26.6589   52.3508 C   0  0  0  1  0  0
   -7.2054  -28.0345   52.6396 C   0  0  0  1  0  0
   -8.4466  -28.6120   53.2813 C   0  0  0  1  0  0
   -9.2453  -29.5317   52.3616 C   0  0  0  1  0  0
   -9.3219  -29.2601   51.1851 O   0  0  0  1  0  0
   -9.8523  -30.6124   52.8564 O   0  0  0  1  0  0
   -9.2454  -27.7949   54.2879 C   0  0  0  1  0  0
   -8.3625  -28.9181   54.7714 C   0  0  0  1  0  0
   -6.1207  -28.8798   52.3340 C   0  0  0  1  0  0
   -4.9477  -28.3520   51.7661 C   0  0  0  1  0  0
   -3.4870  -24.9501   50.9971 C   0  0  0  1  0  0
   -1.9959  -24.5691   50.9834 C   0  0  0  1  0  0
    1.6024  -25.9482   53.9348 H   0  0
    2.8212  -25.0311   53.0258 H   0  0
    2.1925  -26.5667   52.3678 H   0  0
   -0.0527  -25.5346   52.2047 H   0  0
    1.3397  -22.9830   53.1057 H   0  0
    0.1208  -23.9000   54.0146 H   0  0
   -0.3394  -23.0653   52.5054 H   0  0
    3.0759  -23.7993   51.3955 H   0  0
    3.8979  -23.3738   49.0977 H   0  0
    2.4527  -23.9212   47.1454 H   0  0
    0.1687  -24.7946   47.5018 H   0  0
   -1.3833  -22.7935   48.6230 H   0  0
   -4.3584  -24.5199   47.1801 H   0  0
   -5.2283  -21.2795   44.5901 H   0  0
   -3.1496  -20.1262   45.3285 H   0  0
   -0.8991  -27.2191   49.0732 H   0  0
   -0.6996  -27.0353   50.7991 H   0  0
   -3.1812  -27.5523   49.2106 H   0  0
   -2.6630  -28.2528   50.7231 H   0  0
   -5.8742  -25.0644   51.5780 H   0  0
   -7.9547  -26.0010   52.5665 H   0  0
  -10.4713  -30.2413   53.6191 H   0  0
  -10.2974  -28.0803   54.2895 H   0  0
   -8.7894  -26.8204   54.4624 H   0  0
   -7.4351  -28.5435   55.2045 H   0  0
   -8.9427  -29.8039   55.0300 H   0  0
   -6.1911  -29.9481   52.5388 H   0  0
   -4.1104  -29.0124   51.5405 H   0  0
   -3.9414  -24.5710   51.9125 H   0  0
   -3.9829  -24.4729   50.1519 H   0  0
   -1.9074  -23.4839   50.9324 H   0  0
   -1.5355  -24.9033   51.9132 H   0  0
  1  2  1  0
  2  3  1  0
  2  4  1  0
  4  5  2  0
  4  9  1  0
  5  6  1  0
  6  7  2  0
  7  8  1  0
  8  9  2  0
  9 10  1  0
 10 11  1  0
 10 20  1  0
 10 36  1  0
 11 12  2  0
 11 13  1  0
 13 14  1  0
 14 15  2  0
 14 19  1  0
 15 16  1  0
 16 17  2  0
 17 18  1  0
 18 19  2  0
 20 21  1  0
 21 22  1  0
 22 23  1  0
 22 35  1  0
 23 24  2  0
 23 34  1  0
 24 25  1  0
 25 26  2  0
 26 27  1  0
 26 33  1  0
 27 28  1  0
 27 31  1  0
 27 32  1  0
 28 29  2  0
 28 30  1  0
 31 32  1  0
 33 34  2  0
 35 36  1  0
  1 37  1  0
  1 38  1  0
  1 39  1  0
  2 40  1  0
  3 41  1  0
  3 42  1  0
  3 43  1  0
  5 44  1  0
  6 45  1  0
  7 46  1  0
  8 47  1  0
 13 48  1  0
 15 49  1  0
 17 50  1  0
 18 51  1  0
 20 52  1  0
 20 53  1  0
 21 54  1  0
 21 55  1  0
 24 56  1  0
 25 57  1  0
 30 58  1  0
 31 59  1  0
 31 60  1  0
 32 61  1  0
 32 62  1  0
 33 63  1  0
 34 64  1  0
 35 65  1  0
 35 66  1  0
 36 67  1  0
 36 68  1  0
M  END
> <Name>
Molecule

> <AbsoluteEnergy>
72.9161

> <Clean Energy>
198.799

> <ConfNumber>
48

> <MOL_NUMBER>
8

> <RelativeEnergy>
11.3671

> <POSE_NUMBER>
8

> <LibDockScore>
134.5774

> <HotSpots>
2.27,-24.92,52.19,A,58,1
2.67,-22.92,49.98,A,39,5
-3.53,-20.52,45.19,A,12,18

$$$$
Molecule
  SciTegic05072616053D

 68 72  0  0  0  0            999 V2000
    1.9411  -25.6829   52.9640 C   0  0  0  1  0  0
    0.8116  -24.8915   52.2671 C   0  0  0  1  0  0
    0.4465  -23.6267   53.0695 C   0  0  0  1  0  0
    1.1247  -24.5622   50.8226 C   0  0  0  1  0  0
    2.4123  -24.0259   50.5813 C   0  0  0  1  0  0
    2.8714  -23.7731   49.2858 C   0  0  0  1  0  0
    2.0459  -24.0521   48.1970 C   0  0  0  1  0  0
    0.7517  -24.5410   48.4113 C   0  0  0  1  0  0
    0.2242  -24.7584   49.7142 C   0  0  0  1  0  0
   -1.2583  -25.1869   49.8327 C   0  0  0  1  0  0
   -2.1003  -24.7589   48.6105 C   0  0  0  1  0  0
   -2.7670  -25.5801   48.0182 O   0  0  0  1  0  0
   -2.1024  -23.4292   48.2050 N   0  0  0  1  0  0
   -2.9089  -22.8726   47.2292 C   0  0  0  1  0  0
   -4.0874  -23.5199   46.7737 C   0  0  0  1  0  0
   -4.8844  -22.9431   45.8311 N   0  0  0  1  0  0
   -4.5251  -21.7305   45.3198 C   0  0  0  1  0  0
   -3.3556  -21.0807   45.7651 C   0  0  0  1  0  0
   -2.5618  -21.6513   46.7152 N   0  0  0  1  0  0
   -1.3536  -26.7294   50.0004 C   0  0  0  1  0  0
   -2.7748  -27.2972   50.2317 C   0  0  0  1  0  0
   -3.7276  -26.4167   50.9811 N   0  0  0  1  0  0
   -4.8660  -26.9634   51.5529 C   0  0  0  1  0  0
   -5.9544  -26.1236   51.8680 C   0  0  0  1  0  0
   -7.1234  -26.6522   52.4372 C   0  0  0  1  0  0
   -7.2169  -28.0298   52.7158 C   0  0  0  1  0  0
   -8.4544  -28.6097   53.3625 C   0  0  0  1  0  0
   -9.2108  -29.5938   52.4743 C   0  0  0  1  0  0
   -9.2759  -29.3786   51.2854 O   0  0  0  1  0  0
   -9.7942  -30.6684   53.0091 O   0  0  0  1  0  0
   -9.2937  -27.7675   54.3140 C   0  0  0  1  0  0
   -8.3908  -28.8417   54.8669 C   0  0  0  1  0  0
   -6.1365  -28.8750   52.3953 C   0  0  0  1  0  0
   -4.9667  -28.3454   51.8226 C   0  0  0  1  0  0
   -3.5059  -24.9403   51.0663 C   0  0  0  1  0  0
   -2.0145  -24.5609   51.0448 C   0  0  0  1  0  0
    1.6071  -25.9682   53.9616 H   0  0
    2.8179  -25.0414   53.0516 H   0  0
    2.1884  -26.5734   52.3861 H   0  0
   -0.0602  -25.5454   52.2453 H   0  0
    1.3322  -22.9973   53.1565 H   0  0
    0.1214  -23.9241   54.0665 H   0  0
   -0.3506  -23.0791   52.5667 H   0  0
    3.0624  -23.8044   51.4277 H   0  0
    3.8679  -23.3607   49.1275 H   0  0
    2.4075  -23.8899   47.1816 H   0  0
    0.1250  -24.7633   47.5476 H   0  0
   -1.4137  -22.7732   48.6951 H   0  0
   -4.3586  -24.4926   47.1841 H   0  0
   -5.1481  -21.2593   44.5596 H   0  0
   -3.0835  -20.1123   45.3454 H   0  0
   -0.9336  -27.2010   49.1120 H   0  0
   -0.7224  -27.0274   50.8376 H   0  0
   -3.2151  -27.5326   49.2628 H   0  0
   -2.6877  -28.2423   50.7677 H   0  0
   -5.8871  -25.0543   51.6677 H   0  0
   -7.9621  -25.9942   52.6645 H   0  0
  -10.4361  -30.2814   53.7444 H   0  0
  -10.3376  -28.0812   54.3106 H   0  0
   -8.8671  -26.7736   54.4493 H   0  0
   -7.4821  -28.4215   55.2979 H   0  0
   -8.9522  -29.7296   55.1577 H   0  0
   -6.2077  -29.9447   52.5922 H   0  0
   -4.1326  -29.0058   51.5855 H   0  0
   -3.9537  -24.5661   51.9869 H   0  0
   -4.0069  -24.4575   50.2273 H   0  0
   -1.9251  -23.4755   50.9995 H   0  0
   -1.5483  -24.9010   51.9695 H   0  0
  1  2  1  0
  2  3  1  0
  2  4  1  0
  4  5  2  0
  4  9  1  0
  5  6  1  0
  6  7  2  0
  7  8  1  0
  8  9  2  0
  9 10  1  0
 10 11  1  0
 10 20  1  0
 10 36  1  0
 11 12  2  0
 11 13  1  0
 13 14  1  0
 14 15  2  0
 14 19  1  0
 15 16  1  0
 16 17  2  0
 17 18  1  0
 18 19  2  0
 20 21  1  0
 21 22  1  0
 22 23  1  0
 22 35  1  0
 23 24  2  0
 23 34  1  0
 24 25  1  0
 25 26  2  0
 26 27  1  0
 26 33  1  0
 27 28  1  0
 27 31  1  0
 27 32  1  0
 28 29  2  0
 28 30  1  0
 31 32  1  0
 33 34  2  0
 35 36  1  0
  1 37  1  0
  1 38  1  0
  1 39  1  0
  2 40  1  0
  3 41  1  0
  3 42  1  0
  3 43  1  0
  5 44  1  0
  6 45  1  0
  7 46  1  0
  8 47  1  0
 13 48  1  0
 15 49  1  0
 17 50  1  0
 18 51  1  0
 20 52  1  0
 20 53  1  0
 21 54  1  0
 21 55  1  0
 24 56  1  0
 25 57  1  0
 30 58  1  0
 31 59  1  0
 31 60  1  0
 32 61  1  0
 32 62  1  0
 33 63  1  0
 34 64  1  0
 35 65  1  0
 35 66  1  0
 36 67  1  0
 36 68  1  0
M  END
> <Name>
Molecule

> <AbsoluteEnergy>
72.9161

> <Clean Energy>
198.799

> <ConfNumber>
48

> <MOL_NUMBER>
8

> <RelativeEnergy>
11.3671

> <POSE_NUMBER>
9

> <LibDockScore>
134.5454

> <HotSpots>
2.67,-23.92,48.98,A,32,7
-2.53,-21.12,45.98,A,16,18
-8.73,-28.12,54.38,A,70,32

$$$$
Molecule
  SciTegic05072616053D

 68 72  0  0  0  0            999 V2000
   -1.0754  -22.3975   47.1749 C   0  0  0  1  0  0
   -0.5804  -23.7599   47.7006 C   0  0  0  1  0  0
   -0.0611  -24.6461   46.5547 C   0  0  0  1  0  0
    0.4551  -23.6181   48.7973 C   0  0  0  1  0  0
    1.6555  -22.9563   48.4475 C   0  0  0  1  0  0
    2.7020  -22.8136   49.3629 C   0  0  0  1  0  0
    2.5709  -23.3413   50.6483 C   0  0  0  1  0  0
    1.3903  -23.9942   51.0176 C   0  0  0  1  0  0
    0.2902  -24.1283   50.1307 C   0  0  0  1  0  0
   -0.9928  -24.8345   50.6127 C   0  0  0  1  0  0
   -2.2618  -23.9675   50.4459 C   0  0  0  1  0  0
   -2.1747  -22.7840   50.2022 O   0  0  0  1  0  0
   -3.5099  -24.5644   50.5838 N   0  0  0  1  0  0
   -4.7693  -23.9840   50.4800 C   0  0  0  1  0  0
   -5.9086  -24.8276   50.5535 C   0  0  0  1  0  0
   -7.1715  -24.3254   50.4548 N   0  0  0  1  0  0
   -7.3296  -22.9828   50.2847 C   0  0  0  1  0  0
   -6.2086  -22.1311   50.2091 C   0  0  0  1  0  0
   -4.9429  -22.6345   50.3078 N   0  0  0  1  0  0
   -1.0582  -26.1745   49.7815 C   0  0  0  1  0  0
   -1.8033  -27.3717   50.4000 C   0  0  0  1  0  0
   -1.5203  -27.5377   51.8527 N   0  0  0  1  0  0
   -2.1973  -28.4746   52.6178 C   0  0  0  1  0  0
   -3.2507  -29.2253   52.0520 C   0  0  0  1  0  0
   -3.9561  -30.1575   52.8255 C   0  0  0  1  0  0
   -3.6265  -30.3487   54.1795 C   0  0  0  1  0  0
   -4.4113  -31.3202   55.0235 C   0  0  0  1  0  0
   -4.9792  -30.6590   56.2737 C   0  0  0  1  0  0
   -4.3259  -30.6588   57.2913 O   0  0  0  1  0  0
   -6.1845  -30.0896   56.2162 O   0  0  0  1  0  0
   -5.2482  -32.4006   54.3543 C   0  0  0  1  0  0
   -3.9744  -32.7761   55.0724 C   0  0  0  1  0  0
   -2.5664  -29.6192   54.7469 C   0  0  0  1  0  0
   -1.8570  -28.6869   53.9722 C   0  0  0  1  0  0
   -0.5186  -26.6146   52.4508 C   0  0  0  1  0  0
   -0.9670  -25.1767   52.1560 C   0  0  0  1  0  0
   -1.8763  -22.5703   46.4560 H   0  0
   -0.2488  -21.8957   46.6718 H   0  0
   -1.4392  -21.7834   47.9987 H   0  0
   -1.4433  -24.2546   48.1465 H   0  0
    0.7582  -24.1282   46.0561 H   0  0
   -0.8693  -24.8028   45.8403 H   0  0
    0.2844  -25.6040   46.9436 H   0  0
    1.7666  -22.5490   47.4426 H   0  0
    3.6153  -22.2932   49.0746 H   0  0
    3.3877  -23.2447   51.3636 H   0  0
    1.3124  -24.4142   52.0204 H   0  0
   -3.5000  -25.6125   50.7990 H   0  0
   -5.7703  -25.8999   50.6918 H   0  0
   -8.3325  -22.5631   50.2063 H   0  0
   -6.3536  -21.0597   50.0704 H   0  0
   -1.5136  -25.9549   48.8158 H   0  0
   -0.0386  -26.4892   49.5592 H   0  0
   -1.5114  -28.2822   49.8767 H   0  0
   -2.8756  -27.2328   50.2621 H   0  0
   -3.5176  -29.0788   51.0054 H   0  0
   -4.7630  -30.7363   52.3761 H   0  0
   -6.8299  -30.8500   55.8880 H   0  0
   -5.1143  -32.3977   53.2726 H   0  0
   -6.1306  -32.6457   54.9454 H   0  0
   -4.1780  -33.2226   56.0457 H   0  0
   -3.1615  -32.9730   54.3734 H   0  0
   -2.2947  -29.7778   55.7905 H   0  0
   -1.0381  -28.1232   54.4192 H   0  0
   -0.4728  -26.7704   53.5286 H   0  0
    0.4594  -26.7921   52.0034 H   0  0
   -0.2912  -24.4863   52.6607 H   0  0
   -1.9642  -25.0269   52.5698 H   0  0
  1  2  1  0
  2  3  1  0
  2  4  1  0
  4  5  2  0
  4  9  1  0
  5  6  1  0
  6  7  2  0
  7  8  1  0
  8  9  2  0
  9 10  1  0
 10 11  1  0
 10 20  1  0
 10 36  1  0
 11 12  2  0
 11 13  1  0
 13 14  1  0
 14 15  2  0
 14 19  1  0
 15 16  1  0
 16 17  2  0
 17 18  1  0
 18 19  2  0
 20 21  1  0
 21 22  1  0
 22 23  1  0
 22 35  1  0
 23 24  2  0
 23 34  1  0
 24 25  1  0
 25 26  2  0
 26 27  1  0
 26 33  1  0
 27 28  1  0
 27 31  1  0
 27 32  1  0
 28 29  2  0
 28 30  1  0
 31 32  1  0
 33 34  2  0
 35 36  1  0
  1 37  1  0
  1 38  1  0
  1 39  1  0
  2 40  1  0
  3 41  1  0
  3 42  1  0
  3 43  1  0
  5 44  1  0
  6 45  1  0
  7 46  1  0
  8 47  1  0
 13 48  1  0
 15 49  1  0
 17 50  1  0
 18 51  1  0
 20 52  1  0
 20 53  1  0
 21 54  1  0
 21 55  1  0
 24 56  1  0
 25 57  1  0
 30 58  1  0
 31 59  1  0
 31 60  1  0
 32 61  1  0
 32 62  1  0
 33 63  1  0
 34 64  1  0
 35 65  1  0
 35 66  1  0
 36 67  1  0
 36 68  1  0
M  END
> <Name>
Molecule

> <AbsoluteEnergy>
70.9445

> <Clean Energy>
198.799

> <ConfNumber>
31

> <MOL_NUMBER>
8

> <RelativeEnergy>
9.3955

> <POSE_NUMBER>
10

> <LibDockScore>
132.5984

> <HotSpots>
2.67,-22.92,49.98,A,39,6
-5.93,-24.72,51.19,A,53,15
-6.13,-22.12,49.98,A,41,18

$$$$
Molecule
  SciTegic05072616053D

 68 72  0  0  0  0            999 V2000
    1.1091  -25.4367   46.8091 C   0  0  0  1  0  0
    0.4846  -24.4518   47.8104 C   0  0  0  1  0  0
    0.1960  -23.0911   47.1380 C   0  0  0  1  0  0
    1.3248  -24.3245   49.0676 C   0  0  0  1  0  0
    2.6591  -23.8832   48.8897 C   0  0  0  1  0  0
    3.5398  -23.7734   49.9709 C   0  0  0  1  0  0
    3.1041  -24.1288   51.2519 C   0  0  0  1  0  0
    1.7833  -24.5585   51.4551 C   0  0  0  1  0  0
    0.8441  -24.6254   50.3934 C   0  0  0  1  0  0
   -0.6278  -25.0106   50.6913 C   0  0  0  1  0  0
   -1.5641  -23.8962   50.1844 C   0  0  0  1  0  0
   -1.1030  -22.8428   49.7884 O   0  0  0  1  0  0
   -2.9378  -24.0825   50.1636 N   0  0  0  1  0  0
   -3.7556  -23.6009   49.1553 C   0  0  0  1  0  0
   -3.2131  -23.2993   47.8782 C   0  0  0  1  0  0
   -3.9975  -22.8211   46.8734 N   0  0  0  1  0  0
   -5.3255  -22.6373   47.1168 C   0  0  0  1  0  0
   -5.8788  -22.9389   48.3778 C   0  0  0  1  0  0
   -5.0936  -23.4262   49.3853 N   0  0  0  1  0  0
   -0.9698  -25.1650   52.2211 C   0  0  0  1  0  0
   -0.8344  -26.6028   52.7697 C   0  0  0  1  0  0
   -1.8155  -27.5246   52.1091 N   0  0  0  1  0  0
   -2.5498  -28.5057   52.8078 C   0  0  0  1  0  0
   -3.5691  -29.2529   52.1653 C   0  0  0  1  0  0
   -4.2455  -30.2977   52.8269 C   0  0  0  1  0  0
   -3.9322  -30.6245   54.1591 C   0  0  0  1  0  0
   -4.5789  -31.8296   54.8410 C   0  0  0  1  0  0
   -5.8445  -31.5818   55.6793 C   0  0  0  1  0  0
   -6.3000  -30.4665   55.7967 O   0  0  0  1  0  0
   -6.4382  -32.6250   56.2855 O   0  0  0  1  0  0
   -3.6570  -32.9439   55.3221 C   0  0  0  1  0  0
   -4.5033  -33.1545   54.0918 C   0  0  0  1  0  0
   -2.9862  -29.8342   54.8388 C   0  0  0  1  0  0
   -2.3047  -28.7927   54.1748 C   0  0  0  1  0  0
   -1.9624  -27.3349   50.6312 C   0  0  0  1  0  0
   -0.8939  -26.4004   50.0047 C   0  0  0  1  0  0
    2.0393  -25.0128   46.4308 H   0  0
    0.4185  -25.5803   45.9781 H   0  0
    1.3075  -26.3916   47.2958 H   0  0
   -0.4762  -24.8543   48.1312 H   0  0
   -0.4896  -23.2474   46.3052 H   0  0
    1.1312  -22.6800   46.7579 H   0  0
   -0.2462  -22.4028   47.8583 H   0  0
    3.0067  -23.6239   47.8897 H   0  0
    4.5572  -23.4139   49.8166 H   0  0
    3.7926  -24.0719   52.0950 H   0  0
    1.4699  -24.8493   52.4578 H   0  0
   -3.3889  -24.6259   50.9674 H   0  0
   -2.1490  -23.4535   47.6990 H   0  0
   -5.9687  -22.2518   46.3258 H   0  0
   -6.9434  -22.7820   48.5513 H   0  0
   -0.3141  -24.5098   52.7946 H   0  0
   -1.9909  -24.8227   52.3891 H   0  0
    0.1773  -26.9643   52.5858 H   0  0
   -1.0153  -26.5974   53.8446 H   0  0
   -3.8359  -29.0139   51.1358 H   0  0
   -5.0188  -30.8579   52.3013 H   0  0
   -5.6903  -33.0560   56.8833 H   0  0
   -4.0712  -33.4587   56.1890 H   0  0
   -2.6174  -32.7398   55.0660 H   0  0
   -3.9157  -33.0639   53.1783 H   0  0
   -5.3701  -33.7812   54.3014 H   0  0
   -2.7778  -30.0293   55.8907 H   0  0
   -1.5753  -28.1967   54.7233 H   0  0
   -1.9058  -28.3090   50.1453 H   0  0
   -2.9513  -26.9250   50.4259 H   0  0
   -1.1708  -26.2189   48.9662 H   0  0
    0.0489  -26.9458   49.9626 H   0  0
  1  2  1  0
  2  3  1  0
  2  4  1  0
  4  5  2  0
  4  9  1  0
  5  6  1  0
  6  7  2  0
  7  8  1  0
  8  9  2  0
  9 10  1  0
 10 11  1  0
 10 20  1  0
 10 36  1  0
 11 12  2  0
 11 13  1  0
 13 14  1  0
 14 15  2  0
 14 19  1  0
 15 16  1  0
 16 17  2  0
 17 18  1  0
 18 19  2  0
 20 21  1  0
 21 22  1  0
 22 23  1  0
 22 35  1  0
 23 24  2  0
 23 34  1  0
 24 25  1  0
 25 26  2  0
 26 27  1  0
 26 33  1  0
 27 28  1  0
 27 31  1  0
 27 32  1  0
 28 29  2  0
 28 30  1  0
 31 32  1  0
 33 34  2  0
 35 36  1  0
  1 37  1  0
  1 38  1  0
  1 39  1  0
  2 40  1  0
  3 41  1  0
  3 42  1  0
  3 43  1  0
  5 44  1  0
  6 45  1  0
  7 46  1  0
  8 47  1  0
 13 48  1  0
 15 49  1  0
 17 50  1  0
 18 51  1  0
 20 52  1  0
 20 53  1  0
 21 54  1  0
 21 55  1  0
 24 56  1  0
 25 57  1  0
 30 58  1  0
 31 59  1  0
 31 60  1  0
 32 61  1  0
 32 62  1  0
 33 63  1  0
 34 64  1  0
 35 65  1  0
 35 66  1  0
 36 67  1  0
 36 68  1  0
M  END
> <Name>
Molecule

> <AbsoluteEnergy>
76.4962

> <Clean Energy>
198.799

> <ConfNumber>
75

> <MOL_NUMBER>
8

> <RelativeEnergy>
14.9472

> <POSE_NUMBER>
11

> <LibDockScore>
131.9791

> <HotSpots>
2.67,-23.92,48.98,A,32,5
-5.13,-22.92,46.19,A,18,17
-4.33,-32.92,55.19,A,75,32

$$$$
Molecule
  SciTegic05072616053D

 68 72  0  0  0  0            999 V2000
    0.2459  -23.3745   46.2929 C   0  0  0  1  0  0
    0.4927  -24.6732   47.0830 C   0  0  0  1  0  0
    1.3061  -25.6800   46.2463 C   0  0  0  1  0  0
    1.1318  -24.3980   48.4259 C   0  0  0  1  0  0
    2.4561  -23.9003   48.4075 C   0  0  0  1  0  0
    3.1452  -23.6216   49.5920 C   0  0  0  1  0  0
    2.5171  -23.8343   50.8224 C   0  0  0  1  0  0
    1.2037  -24.3229   50.8647 C   0  0  0  1  0  0
    0.4727  -24.6094   49.6816 C   0  0  0  1  0  0
   -0.9749  -25.1194   49.7828 C   0  0  0  1  0  0
   -1.8227  -24.6755   48.5820 C   0  0  0  1  0  0
   -2.3056  -25.5195   47.8596 O   0  0  0  1  0  0
   -2.0353  -23.3235   48.3291 N   0  0  0  1  0  0
   -2.8560  -22.7924   47.3415 C   0  0  0  1  0  0
   -2.5067  -21.5664   46.7159 C   0  0  0  1  0  0
   -3.3136  -21.0002   45.7701 N   0  0  0  1  0  0
   -4.4697  -21.6375   45.4310 C   0  0  0  1  0  0
   -4.8257  -22.8574   46.0398 C   0  0  0  1  0  0
   -4.0163  -23.4254   46.9770 N   0  0  0  1  0  0
   -1.7493  -24.5868   51.0246 C   0  0  0  1  0  0
   -3.2122  -25.0720   51.1017 C   0  0  0  1  0  0
   -3.3806  -26.5520   50.9603 N   0  0  0  1  0  0
   -4.5421  -27.1678   51.4398 C   0  0  0  1  0  0
   -5.6463  -26.3711   51.8220 C   0  0  0  1  0  0
   -6.8492  -26.9600   52.2543 C   0  0  0  1  0  0
   -6.9811  -28.3620   52.3057 C   0  0  0  1  0  0
   -8.3090  -29.0016   52.6772 C   0  0  0  1  0  0
   -8.8456  -28.6803   54.0728 C   0  0  0  1  0  0
   -9.3343  -27.5940   54.2861 O   0  0  0  1  0  0
   -8.8031  -29.6004   55.0431 O   0  0  0  1  0  0
   -9.3434  -29.1906   51.5735 C   0  0  0  1  0  0
   -8.6070  -30.3872   52.1202 C   0  0  0  1  0  0
   -5.8714  -29.1628   51.9804 C   0  0  0  1  0  0
   -4.6653  -28.5755   51.5492 C   0  0  0  1  0  0
   -2.3365  -27.3498   50.2325 C   0  0  0  1  0  0
   -0.9640  -26.6590   50.0276 C   0  0  0  1  0  0
   -0.3001  -23.6150   45.3807 H   0  0
    1.2074  -22.9348   46.0278 H   0  0
   -0.3298  -22.6720   46.8955 H   0  0
   -0.4757  -25.1291   47.2890 H   0  0
    2.2618  -25.2277   45.9814 H   0  0
    0.7543  -25.9078   45.3343 H   0  0
    1.4735  -26.5936   46.8167 H   0  0
    2.9493  -23.7306   47.4504 H   0  0
    4.1659  -23.2408   49.5560 H   0  0
    3.0487  -23.6202   51.7496 H   0  0
    0.7305  -24.4874   51.8328 H   0  0
   -1.5175  -22.6267   48.9547 H   0  0
   -1.5783  -21.0683   46.9953 H   0  0
   -5.1265  -21.1984   44.6801 H   0  0
   -5.7562  -23.3506   45.7586 H   0  0
   -1.7415  -23.4970   51.0052 H   0  0
   -1.2266  -24.9020   51.9277 H   0  0
   -3.7883  -24.5791   50.3186 H   0  0
   -3.6348  -24.7625   52.0576 H   0  0
   -5.5645  -25.2849   51.7812 H   0  0
   -7.6851  -26.3268   52.5516 H   0  0
   -7.7907  -29.8729   55.1011 H   0  0
   -8.9521  -28.8855   50.6030 H   0  0
  -10.3591  -29.1293   51.9643 H   0  0
   -9.2297  -30.9666   52.8019 H   0  0
   -7.8222  -30.7219   51.4419 H   0  0
   -5.9451  -30.2472   52.0626 H   0  0
   -3.8168  -29.2115   51.2967 H   0  0
   -2.1763  -28.2819   50.7745 H   0  0
   -2.7328  -27.6262   49.2555 H   0  0
   -0.4632  -27.1366   49.1855 H   0  0
   -0.3446  -26.8640   50.9008 H   0  0
  1  2  1  0
  2  3  1  0
  2  4  1  0
  4  5  2  0
  4  9  1  0
  5  6  1  0
  6  7  2  0
  7  8  1  0
  8  9  2  0
  9 10  1  0
 10 11  1  0
 10 20  1  0
 10 36  1  0
 11 12  2  0
 11 13  1  0
 13 14  1  0
 14 15  2  0
 14 19  1  0
 15 16  1  0
 16 17  2  0
 17 18  1  0
 18 19  2  0
 20 21  1  0
 21 22  1  0
 22 23  1  0
 22 35  1  0
 23 24  2  0
 23 34  1  0
 24 25  1  0
 25 26  2  0
 26 27  1  0
 26 33  1  0
 27 28  1  0
 27 31  1  0
 27 32  1  0
 28 29  2  0
 28 30  1  0
 31 32  1  0
 33 34  2  0
 35 36  1  0
  1 37  1  0
  1 38  1  0
  1 39  1  0
  2 40  1  0
  3 41  1  0
  3 42  1  0
  3 43  1  0
  5 44  1  0
  6 45  1  0
  7 46  1  0
  8 47  1  0
 13 48  1  0
 15 49  1  0
 17 50  1  0
 18 51  1  0
 20 52  1  0
 20 53  1  0
 21 54  1  0
 21 55  1  0
 24 56  1  0
 25 57  1  0
 30 58  1  0
 31 59  1  0
 31 60  1  0
 32 61  1  0
 32 62  1  0
 33 63  1  0
 34 64  1  0
 35 65  1  0
 35 66  1  0
 36 67  1  0
 36 68  1  0
M  END
> <Name>
Molecule

> <AbsoluteEnergy>
64.7344

> <Clean Energy>
198.799

> <ConfNumber>
5

> <MOL_NUMBER>
8

> <RelativeEnergy>
3.18542

> <POSE_NUMBER>
12

> <LibDockScore>
131.6796

> <HotSpots>
2.67,-23.92,48.98,A,32,6
-4.93,-21.52,45.19,A,11,17
-9.33,-29.92,51.19,A,52,31

$$$$
Molecule
  SciTegic05072616053D

 68 72  0  0  0  0            999 V2000
   -4.3483  -21.6338   50.7853 C   0  0  0  1  0  0
   -5.3378  -22.1234   49.7124 C   0  0  0  1  0  0
   -6.7588  -22.3250   50.2557 C   0  0  0  1  0  0
   -4.7791  -23.1522   48.7257 C   0  0  0  1  0  0
   -4.5576  -22.6195   47.4274 C   0  0  0  1  0  0
   -4.0951  -23.3991   46.3666 C   0  0  0  1  0  0
   -3.8385  -24.7518   46.5767 C   0  0  0  1  0  0
   -4.0198  -25.3094   47.8471 C   0  0  0  1  0  0
   -4.4588  -24.5477   48.9657 C   0  0  0  1  0  0
   -4.5385  -25.2682   50.3343 C   0  0  0  1  0  0
   -3.3541  -24.8515   51.2165 C   0  0  0  1  0  0
   -3.5754  -24.3282   52.2859 O   0  0  0  1  0  0
   -2.0381  -25.0536   50.7889 N   0  0  0  1  0  0
   -0.8940  -24.7967   51.5346 C   0  0  0  1  0  0
   -0.9551  -24.3796   52.8890 C   0  0  0  1  0  0
    0.1714  -24.0758   53.5901 N   0  0  0  1  0  0
    1.3782  -24.1959   52.9715 C   0  0  0  1  0  0
    1.4620  -24.6375   51.6363 C   0  0  0  1  0  0
    0.3331  -24.9372   50.9326 N   0  0  0  1  0  0
   -5.9569  -25.0619   50.9563 C   0  0  0  1  0  0
   -6.2020  -25.7274   52.3337 C   0  0  0  1  0  0
   -5.9003  -27.1894   52.3333 N   0  0  0  1  0  0
   -6.7559  -28.0978   52.9802 C   0  0  0  1  0  0
   -7.8850  -27.6194   53.6867 C   0  0  0  1  0  0
   -8.8354  -28.5047   54.2289 C   0  0  0  1  0  0
   -8.6937  -29.8973   54.0703 C   0  0  0  1  0  0
   -9.8295  -30.8398   54.4714 C   0  0  0  1  0  0
   -9.9466  -31.2924   55.9404 C   0  0  0  1  0  0
   -9.8437  -30.4865   56.8391 O   0  0  0  1  0  0
  -10.2196  -32.5732   56.2460 O   0  0  0  1  0  0
  -10.3204  -31.8030   53.3950 C   0  0  0  1  0  0
  -11.1651  -30.6138   53.7712 C   0  0  0  1  0  0
   -7.5077  -30.3873   53.4839 C   0  0  0  1  0  0
   -6.5506  -29.4979   52.9438 C   0  0  0  1  0  0
   -4.6457  -27.5836   51.6186 C   0  0  0  1  0  0
   -4.4607  -26.8401   50.2649 C   0  0  0  1  0  0
   -4.3320  -22.3705   51.5885 H   0  0
   -4.7246  -20.6919   51.1846 H   0  0
   -3.3506  -21.5011   50.3669 H   0  0
   -5.4773  -21.2947   49.0182 H   0  0
   -7.1010  -21.3734   50.6625 H   0  0
   -6.7085  -23.0519   51.0664 H   0  0
   -7.4327  -22.6712   49.4721 H   0  0
   -4.7564  -21.5620   47.2534 H   0  0
   -3.9364  -22.9543   45.3842 H   0  0
   -3.4964  -25.3762   45.7513 H   0  0
   -3.8163  -26.3713   47.9855 H   0  0
   -1.9000  -25.4400   49.8007 H   0  0
   -1.9255  -24.3006   53.3791 H   0  0
    2.2897  -23.9476   53.5153 H   0  0
    2.4378  -24.7405   51.1616 H   0  0
   -6.1395  -23.9917   51.0535 H   0  0
   -6.7012  -25.4385   50.2547 H   0  0
   -5.5774  -25.2379   53.0809 H   0  0
   -7.2438  -25.5819   52.6193 H   0  0
   -8.0211  -26.5454   53.8133 H   0  0
   -9.6901  -28.1086   54.7773 H   0  0
   -9.4675  -33.1209   55.7593 H   0  0
  -10.7055  -32.7251   53.8303 H   0  0
   -9.7988  -31.6450   52.4511 H   0  0
  -11.0968  -29.8193   53.0280 H   0  0
  -12.0023  -30.8990   54.4082 H   0  0
   -7.3276  -31.4617   53.4469 H   0  0
   -5.6416  -29.8960   52.4929 H   0  0
   -4.6655  -28.6575   51.4331 H   0  0
   -3.7909  -27.3698   52.2602 H   0  0
   -3.4958  -27.1229   49.8442 H   0  0
   -5.2204  -27.1951   49.5686 H   0  0
  1  2  1  0
  2  3  1  0
  2  4  1  0
  4  5  2  0
  4  9  1  0
  5  6  1  0
  6  7  2  0
  7  8  1  0
  8  9  2  0
  9 10  1  0
 10 11  1  0
 10 20  1  0
 10 36  1  0
 11 12  2  0
 11 13  1  0
 13 14  1  0
 14 15  2  0
 14 19  1  0
 15 16  1  0
 16 17  2  0
 17 18  1  0
 18 19  2  0
 20 21  1  0
 21 22  1  0
 22 23  1  0
 22 35  1  0
 23 24  2  0
 23 34  1  0
 24 25  1  0
 25 26  2  0
 26 27  1  0
 26 33  1  0
 27 28  1  0
 27 31  1  0
 27 32  1  0
 28 29  2  0
 28 30  1  0
 31 32  1  0
 33 34  2  0
 35 36  1  0
  1 37  1  0
  1 38  1  0
  1 39  1  0
  2 40  1  0
  3 41  1  0
  3 42  1  0
  3 43  1  0
  5 44  1  0
  6 45  1  0
  7 46  1  0
  8 47  1  0
 13 48  1  0
 15 49  1  0
 17 50  1  0
 18 51  1  0
 20 52  1  0
 20 53  1  0
 21 54  1  0
 21 55  1  0
 24 56  1  0
 25 57  1  0
 30 58  1  0
 31 59  1  0
 31 60  1  0
 32 61  1  0
 32 62  1  0
 33 63  1  0
 34 64  1  0
 35 65  1  0
 35 66  1  0
 36 67  1  0
 36 68  1  0
M  END
> <Name>
Molecule

> <AbsoluteEnergy>
81.0594

> <Clean Energy>
198.799

> <ConfNumber>
112

> <MOL_NUMBER>
8

> <RelativeEnergy>
19.5104

> <POSE_NUMBER>
13

> <LibDockScore>
131.3962

> <HotSpots>
-4.73,-22.32,50.38,A,46,3
1.67,-24.32,50.98,A,50,18
-10.93,-30.92,53.98,A,68,31

$$$$
Molecule
  SciTegic05072616053D

 68 72  0  0  0  0            999 V2000
   -0.4947  -23.2470   48.2981 C   0  0  0  1  0  0
   -0.1517  -24.6608   48.8092 C   0  0  0  1  0  0
    0.5807  -25.4729   47.7241 C   0  0  0  1  0  0
    0.6329  -24.6380   50.1049 C   0  0  0  1  0  0
    1.9299  -24.0790   50.0425 C   0  0  0  1  0  0
    2.7701  -24.0613   51.1592 C   0  0  0  1  0  0
    2.3328  -24.6193   52.3601 C   0  0  0  1  0  0
    1.0484  -25.1718   52.4484 C   0  0  0  1  0  0
    0.1464  -25.1538   51.3539 C   0  0  0  1  0  0
   -1.2811  -25.7054   51.5284 C   0  0  0  1  0  0
   -2.3360  -24.5934   51.3318 C   0  0  0  1  0  0
   -2.0026  -23.4315   51.3951 O   0  0  0  1  0  0
   -3.6591  -24.9336   51.1029 N   0  0  0  1  0  0
   -4.7402  -24.1106   50.8130 C   0  0  0  1  0  0
   -4.6282  -22.7199   50.5488 C   0  0  0  1  0  0
   -5.7335  -21.9641   50.2853 N   0  0  0  1  0  0
   -6.9571  -22.5665   50.2689 C   0  0  0  1  0  0
   -7.0795  -23.9464   50.5170 C   0  0  0  1  0  0
   -5.9782  -24.7002   50.7836 N   0  0  0  1  0  0
   -1.3726  -26.9169   50.5137 C   0  0  0  1  0  0
   -2.4664  -27.9962   50.7275 C   0  0  0  1  0  0
   -2.8778  -28.1029   52.1542 N   0  0  0  1  0  0
   -4.1730  -28.4272   52.5618 C   0  0  0  1  0  0
   -5.2910  -28.0727   51.7685 C   0  0  0  1  0  0
   -6.5973  -28.2936   52.2210 C   0  0  0  1  0  0
   -6.8183  -28.8959   53.4698 C   0  0  0  1  0  0
   -8.2286  -29.0664   53.9743 C   0  0  0  1  0  0
   -8.5461  -28.0779   55.0830 C   0  0  0  1  0  0
   -9.3527  -27.2010   54.8786 O   0  0  0  1  0  0
   -7.9147  -28.1971   56.2491 O   0  0  0  1  0  0
   -8.8680  -30.4453   54.0231 C   0  0  0  1  0  0
   -9.3248  -29.4423   52.9918 C   0  0  0  1  0  0
   -5.7202  -29.3180   54.2407 C   0  0  0  1  0  0
   -4.4100  -29.0934   53.7882 C   0  0  0  1  0  0
   -1.8080  -27.7286   53.1151 C   0  0  0  1  0  0
   -1.6074  -26.2112   52.9973 C   0  0  0  1  0  0
   -1.1308  -23.3343   47.4173 H   0  0
    0.4285  -22.7372   48.0228 H   0  0
   -1.0121  -22.6831   49.0743 H   0  0
   -1.0967  -25.1570   49.0305 H   0  0
    1.4984  -24.9516   47.4517 H   0  0
   -0.0609  -25.5488   46.8462 H   0  0
    0.8174  -26.4693   48.0973 H   0  0
    2.2822  -23.6526   49.1033 H   0  0
    3.7617  -23.6138   51.0919 H   0  0
    2.9900  -24.6256   53.2297 H   0  0
    0.7329  -25.6291   53.3862 H   0  0
   -3.8800  -25.9792   51.1571 H   0  0
   -3.6451  -22.2492   50.5566 H   0  0
   -7.8481  -21.9739   50.0618 H   0  0
   -8.0635  -24.4148   50.4955 H   0  0
   -1.4962  -26.5087   49.5106 H   0  0
   -0.4053  -27.4191   50.4977 H   0  0
   -2.0865  -28.9620   50.3942 H   0  0
   -3.3386  -27.7452   50.1239 H   0  0
   -5.1320  -27.6205   50.7896 H   0  0
   -7.4445  -27.9974   51.6025 H   0  0
   -6.8922  -28.1555   56.0139 H   0  0
   -9.5782  -30.5282   54.8458 H   0  0
   -8.2172  -31.2031   53.5868 H   0  0
   -8.9189  -29.6665   52.0054 H   0  0
  -10.2785  -28.9906   53.2648 H   0  0
   -5.8869  -29.8214   55.1930 H   0  0
   -3.5664  -29.4357   54.3877 H   0  0
   -2.1172  -27.9814   54.1293 H   0  0
   -0.8822  -28.2432   52.8578 H   0  0
   -0.7946  -25.9140   53.6600 H   0  0
   -2.5098  -25.7116   53.3497 H   0  0
  1  2  1  0
  2  3  1  0
  2  4  1  0
  4  5  2  0
  4  9  1  0
  5  6  1  0
  6  7  2  0
  7  8  1  0
  8  9  2  0
  9 10  1  0
 10 11  1  0
 10 20  1  0
 10 36  1  0
 11 12  2  0
 11 13  1  0
 13 14  1  0
 14 15  2  0
 14 19  1  0
 15 16  1  0
 16 17  2  0
 17 18  1  0
 18 19  2  0
 20 21  1  0
 21 22  1  0
 22 23  1  0
 22 35  1  0
 23 24  2  0
 23 34  1  0
 24 25  1  0
 25 26  2  0
 26 27  1  0
 26 33  1  0
 27 28  1  0
 27 31  1  0
 27 32  1  0
 28 29  2  0
 28 30  1  0
 31 32  1  0
 33 34  2  0
 35 36  1  0
  1 37  1  0
  1 38  1  0
  1 39  1  0
  2 40  1  0
  3 41  1  0
  3 42  1  0
  3 43  1  0
  5 44  1  0
  6 45  1  0
  7 46  1  0
  8 47  1  0
 13 48  1  0
 15 49  1  0
 17 50  1  0
 18 51  1  0
 20 52  1  0
 20 53  1  0
 21 54  1  0
 21 55  1  0
 24 56  1  0
 25 57  1  0
 30 58  1  0
 31 59  1  0
 31 60  1  0
 32 61  1  0
 32 62  1  0
 33 63  1  0
 34 64  1  0
 35 65  1  0
 35 66  1  0
 36 67  1  0
 36 68  1  0
M  END
> <Name>
Molecule

> <AbsoluteEnergy>
75.7902

> <Clean Energy>
198.799

> <ConfNumber>
70

> <MOL_NUMBER>
8

> <RelativeEnergy>
14.2412

> <POSE_NUMBER>
14

> <LibDockScore>
131.0026

> <HotSpots>
2.27,-24.92,52.19,A,58,7
-7.33,-24.12,50.38,A,44,18
-9.53,-30.12,52.78,A,62,32

$$$$
Molecule
  SciTegic05072616053D

 68 72  0  0  0  0            999 V2000
    0.3178  -23.9526   46.2860 C   0  0  0  1  0  0
    0.7085  -25.1168   47.2153 C   0  0  0  1  0  0
    1.6743  -26.0863   46.5062 C   0  0  0  1  0  0
    1.2621  -24.6199   48.5322 C   0  0  0  1  0  0
    2.5851  -24.1188   48.5148 C   0  0  0  1  0  0
    3.1986  -23.6436   49.6781 C   0  0  0  1  0  0
    2.4945  -23.6589   50.8854 C   0  0  0  1  0  0
    1.1808  -24.1470   50.9256 C   0  0  0  1  0  0
    0.5254  -24.6300   49.7622 C   0  0  0  1  0  0
   -0.9258  -25.1310   49.8554 C   0  0  0  1  0  0
   -1.7639  -24.6832   48.6493 C   0  0  0  1  0  0
   -2.3320  -25.5217   47.9847 O   0  0  0  1  0  0
   -1.8712  -23.3337   48.3259 N   0  0  0  1  0  0
   -2.7274  -22.7817   47.3808 C   0  0  0  1  0  0
   -2.3425  -21.6097   46.6774 C   0  0  0  1  0  0
   -3.1792  -21.0222   45.7714 N   0  0  0  1  0  0
   -4.4005  -21.5850   45.5489 C   0  0  0  1  0  0
   -4.7928  -22.7510   46.2358 C   0  0  0  1  0  0
   -3.9545  -23.3410   47.1332 N   0  0  0  1  0  0
   -1.7042  -24.5922   51.0921 C   0  0  0  1  0  0
   -3.1705  -25.0684   51.1612 C   0  0  0  1  0  0
   -3.3472  -26.5475   51.0204 N   0  0  0  1  0  0
   -4.5152  -27.1557   51.4937 C   0  0  0  1  0  0
   -5.6366  -26.3558   51.8145 C   0  0  0  1  0  0
   -6.8450  -26.9393   52.2386 C   0  0  0  1  0  0
   -6.9651  -28.3394   52.3429 C   0  0  0  1  0  0
   -8.2964  -28.9774   52.7050 C   0  0  0  1  0  0
   -8.8232  -28.6875   54.1112 C   0  0  0  1  0  0
   -9.3281  -27.6133   54.3470 O   0  0  0  1  0  0
   -8.7543  -29.6220   55.0661 O   0  0  0  1  0  0
   -9.3380  -29.1296   51.6023 C   0  0  0  1  0  0
   -8.6089  -30.3458   52.1143 C   0  0  0  1  0  0
   -5.8398  -29.1411   52.0793 C   0  0  0  1  0  0
   -4.6282  -28.5590   51.6564 C   0  0  0  1  0  0
   -2.3037  -27.3525   50.2996 C   0  0  0  1  0  0
   -0.9258  -26.6703   50.1020 C   0  0  0  1  0  0
   -0.1621  -24.3581   45.3953 H   0  0
    1.2208  -23.4173   45.9924 H   0  0
   -0.3647  -23.2752   46.7993 H   0  0
   -0.1973  -25.6751   47.4517 H   0  0
    2.5699  -25.5393   46.2114 H   0  0
    1.1870  -26.4801   45.6142 H   0  0
    1.9425  -26.9047   47.1743 H   0  0
    3.1375  -24.1028   47.5753 H   0  0
    4.2196  -23.2636   49.6436 H   0  0
    2.9670  -23.2911   51.7962 H   0  0
    0.6477  -24.1560   51.8763 H   0  0
   -1.2337  -22.6569   48.8554 H   0  0
   -1.3622  -21.1711   46.8637 H   0  0
   -5.0816  -21.1277   44.8312 H   0  0
   -5.7750  -23.1845   46.0477 H   0  0
   -1.6896  -23.5025   51.0715 H   0  0
   -1.1887  -24.9095   51.9986 H   0  0
   -3.7390  -24.5729   50.3743 H   0  0
   -3.5968  -24.7552   52.1143 H   0  0
   -5.5638  -25.2714   51.7320 H   0  0
   -7.6944  -26.3034   52.4883 H   0  0
   -7.7368  -29.8778   55.1090 H   0  0
   -8.9491  -28.8030   50.6378 H   0  0
  -10.3511  -29.0699   51.9999 H   0  0
   -9.2330  -30.9373   52.7842 H   0  0
   -7.8304  -30.6695   51.4235 H   0  0
   -5.9056  -30.2220   52.2032 H   0  0
   -3.7675  -29.1957   51.4519 H   0  0
   -2.1524  -28.2849   50.8435 H   0  0
   -2.6960  -27.6276   49.3205 H   0  0
   -0.4230  -27.1520   49.2634 H   0  0
   -0.3128  -26.8781   50.9790 H   0  0
  1  2  1  0
  2  3  1  0
  2  4  1  0
  4  5  2  0
  4  9  1  0
  5  6  1  0
  6  7  2  0
  7  8  1  0
  8  9  2  0
  9 10  1  0
 10 11  1  0
 10 20  1  0
 10 36  1  0
 11 12  2  0
 11 13  1  0
 13 14  1  0
 14 15  2  0
 14 19  1  0
 15 16  1  0
 16 17  2  0
 17 18  1  0
 18 19  2  0
 20 21  1  0
 21 22  1  0
 22 23  1  0
 22 35  1  0
 23 24  2  0
 23 34  1  0
 24 25  1  0
 25 26  2  0
 26 27  1  0
 26 33  1  0
 27 28  1  0
 27 31  1  0
 27 32  1  0
 28 29  2  0
 28 30  1  0
 31 32  1  0
 33 34  2  0
 35 36  1  0
  1 37  1  0
  1 38  1  0
  1 39  1  0
  2 40  1  0
  3 41  1  0
  3 42  1  0
  3 43  1  0
  5 44  1  0
  6 45  1  0
  7 46  1  0
  8 47  1  0
 13 48  1  0
 15 49  1  0
 17 50  1  0
 18 51  1  0
 20 52  1  0
 20 53  1  0
 21 54  1  0
 21 55  1  0
 24 56  1  0
 25 57  1  0
 30 58  1  0
 31 59  1  0
 31 60  1  0
 32 61  1  0
 32 62  1  0
 33 63  1  0
 34 64  1  0
 35 65  1  0
 35 66  1  0
 36 67  1  0
 36 68  1  0
M  END
> <Name>
Molecule

> <AbsoluteEnergy>
64.7344

> <Clean Energy>
198.799

> <ConfNumber>
5

> <MOL_NUMBER>
8

> <RelativeEnergy>
3.18542

> <POSE_NUMBER>
15

> <LibDockScore>
130.5893

> <HotSpots>
0.27,-24.92,46.38,A,19,1
-5.13,-22.92,46.19,A,18,18
-6.33,-26.32,51.98,A,57,24

$$$$
Molecule
  SciTegic05072616053D

 68 72  0  0  0  0            999 V2000
    0.7447  -23.2198   47.2157 C   0  0  0  1  0  0
    0.5810  -24.6102   47.8622 C   0  0  0  1  0  0
    1.4793  -25.6497   47.1599 C   0  0  0  1  0  0
    0.8264  -24.5756   49.3554 C   0  0  0  1  0  0
    2.1783  -24.6194   49.7699 C   0  0  0  1  0  0
    2.5279  -24.5644   51.1230 C   0  0  0  1  0  0
    1.5281  -24.4489   52.0898 C   0  0  0  1  0  0
    0.1855  -24.4030   51.7023 C   0  0  0  1  0  0
   -0.2144  -24.4990   50.3435 C   0  0  0  1  0  0
   -1.7134  -24.5164   49.9866 C   0  0  0  1  0  0
   -2.0584  -23.4210   48.9500 C   0  0  0  1  0  0
   -1.3926  -22.4099   48.8720 O   0  0  0  1  0  0
   -3.1550  -23.6019   48.1134 N   0  0  0  1  0  0
   -3.6036  -22.7829   47.0824 C   0  0  0  1  0  0
   -4.8758  -23.0581   46.5144 C   0  0  0  1  0  0
   -5.3896  -22.2912   45.5138 N   0  0  0  1  0  0
   -4.6544  -21.2400   45.0520 C   0  0  0  1  0  0
   -3.3867  -20.9537   45.5988 C   0  0  0  1  0  0
   -2.8717  -21.7228   46.6042 N   0  0  0  1  0  0
   -2.1068  -25.9553   49.4760 C   0  0  0  1  0  0
   -2.1837  -27.0297   50.5770 C   0  0  0  1  0  0
   -3.1544  -26.5771   51.5900 N   0  0  0  1  0  0
   -4.3455  -27.2277   51.8304 C   0  0  0  1  0  0
   -5.4548  -26.4633   52.2460 C   0  0  0  1  0  0
   -6.6680  -27.0893   52.5612 C   0  0  0  1  0  0
   -6.7862  -28.4891   52.4608 C   0  0  0  1  0  0
   -8.0651  -29.1829   52.8765 C   0  0  0  1  0  0
   -8.2971  -29.1544   54.3901 C   0  0  0  1  0  0
   -7.3919  -29.4764   55.1304 O   0  0  0  1  0  0
   -9.4895  -28.7807   54.8664 O   0  0  0  1  0  0
   -8.5058  -30.4114   52.0969 C   0  0  0  1  0  0
   -9.2748  -29.1196   51.9562 C   0  0  0  1  0  0
   -5.6978  -29.2491   51.9889 C   0  0  0  1  0  0
   -4.4772  -28.6240   51.6763 C   0  0  0  1  0  0
   -2.8036  -25.3176   52.2727 C   0  0  0  1  0  0
   -2.6423  -24.1933   51.2266 C   0  0  0  1  0  0
    0.4713  -23.2849   46.1626 H   0  0
    1.7876  -22.9130   47.2957 H   0  0
    0.1058  -22.4948   47.7199 H   0  0
   -0.4562  -24.9161   47.7255 H   0  0
    2.5186  -25.3310   47.2402 H   0  0
    1.2022  -25.7029   46.1070 H   0  0
    1.3549  -26.6275   47.6253 H   0  0
    2.9642  -24.6977   49.0187 H   0  0
    3.5754  -24.6115   51.4208 H   0  0
    1.7936  -24.3945   53.1456 H   0  0
   -0.5803  -24.2896   52.4697 H   0  0
   -3.7293  -24.4881   48.2857 H   0  0
   -5.4543  -23.9029   46.8883 H   0  0
   -5.0506  -20.6146   44.2520 H   0  0
   -2.8118  -20.1106   45.2158 H   0  0
   -1.3800  -26.2738   48.7288 H   0  0
   -3.0742  -25.8977   48.9772 H   0  0
   -1.2040  -27.1541   51.0383 H   0  0
   -2.5173  -27.9735   50.1456 H   0  0
   -5.3682  -25.3794   52.3225 H   0  0
   -7.5209  -26.4925   52.8843 H   0  0
  -10.1772  -29.4296   54.4098 H   0  0
   -9.0294  -31.1236   52.7346 H   0  0
   -7.8610  -30.5914   51.2367 H   0  0
   -9.0398  -28.6115   51.0209 H   0  0
  -10.2073  -29.1431   52.5201 H   0  0
   -5.8022  -30.3270   51.8654 H   0  0
   -3.6359  -29.2162   51.3162 H   0  0
   -3.5953  -25.0509   52.9729 H   0  0
   -1.8667  -25.4456   52.8149 H   0  0
   -2.2517  -23.3090   51.7302 H   0  0
   -3.6318  -23.9232   50.8576 H   0  0
  1  2  1  0
  2  3  1  0
  2  4  1  0
  4  5  2  0
  4  9  1  0
  5  6  1  0
  6  7  2  0
  7  8  1  0
  8  9  2  0
  9 10  1  0
 10 11  1  0
 10 20  1  0
 10 36  1  0
 11 12  2  0
 11 13  1  0
 13 14  1  0
 14 15  2  0
 14 19  1  0
 15 16  1  0
 16 17  2  0
 17 18  1  0
 18 19  2  0
 20 21  1  0
 21 22  1  0
 22 23  1  0
 22 35  1  0
 23 24  2  0
 23 34  1  0
 24 25  1  0
 25 26  2  0
 26 27  1  0
 26 33  1  0
 27 28  1  0
 27 31  1  0
 27 32  1  0
 28 29  2  0
 28 30  1  0
 31 32  1  0
 33 34  2  0
 35 36  1  0
  1 37  1  0
  1 38  1  0
  1 39  1  0
  2 40  1  0
  3 41  1  0
  3 42  1  0
  3 43  1  0
  5 44  1  0
  6 45  1  0
  7 46  1  0
  8 47  1  0
 13 48  1  0
 15 49  1  0
 17 50  1  0
 18 51  1  0
 20 52  1  0
 20 53  1  0
 21 54  1  0
 21 55  1  0
 24 56  1  0
 25 57  1  0
 30 58  1  0
 31 59  1  0
 31 60  1  0
 32 61  1  0
 32 62  1  0
 33 63  1  0
 34 64  1  0
 35 65  1  0
 35 66  1  0
 36 67  1  0
 36 68  1  0
M  END
> <Name>
Molecule

> <AbsoluteEnergy>
71.0082

> <Clean Energy>
198.799

> <ConfNumber>
33

> <MOL_NUMBER>
8

> <RelativeEnergy>
9.4592

> <POSE_NUMBER>
16

> <LibDockScore>
130.1674

> <HotSpots>
1.27,-23.52,47.59,A,27,1
2.27,-24.92,52.19,A,58,7
-5.53,-22.92,48.98,A,33,15

$$$$
Molecule
  SciTegic05072616053D

 68 72  0  0  0  0            999 V2000
   -0.6466  -25.8393   47.2962 C   0  0  0  1  0  0
    0.3595  -24.6999   47.4977 C   0  0  0  1  0  0
   -0.1290  -23.3810   46.8647 C   0  0  0  1  0  0
    1.0406  -24.5255   48.8577 C   0  0  0  1  0  0
    2.4292  -24.2491   48.7506 C   0  0  0  1  0  0
    3.2397  -24.0480   49.8681 C   0  0  0  1  0  0
    2.6792  -24.1169   51.1407 C   0  0  0  1  0  0
    1.3124  -24.3816   51.2887 C   0  0  0  1  0  0
    0.4476  -24.5935   50.1783 C   0  0  0  1  0  0
   -1.0503  -24.8673   50.4558 C   0  0  0  1  0  0
   -1.8954  -23.8875   49.6219 C   0  0  0  1  0  0
   -1.6894  -22.6965   49.7384 O   0  0  0  1  0  0
   -2.8802  -24.3473   48.7571 N   0  0  0  1  0  0
   -3.5047  -23.6336   47.7414 C   0  0  0  1  0  0
   -4.6584  -24.1888   47.1304 C   0  0  0  1  0  0
   -5.3070  -23.5411   46.1210 N   0  0  0  1  0  0
   -4.8208  -22.3400   45.6942 C   0  0  0  1  0  0
   -3.6799  -21.7710   46.2950 C   0  0  0  1  0  0
   -3.0365  -22.4171   47.3091 N   0  0  0  1  0  0
   -1.5088  -24.5395   51.9276 C   0  0  0  1  0  0
   -2.9501  -24.9900   52.2853 C   0  0  0  1  0  0
   -3.1777  -26.4243   51.9386 N   0  0  0  1  0  0
   -4.4221  -27.0401   52.0633 C   0  0  0  1  0  0
   -5.6030  -26.2744   52.1844 C   0  0  0  1  0  0
   -6.8588  -26.9027   52.2854 C   0  0  0  1  0  0
   -6.9629  -28.3098   52.2565 C   0  0  0  1  0  0
   -8.3224  -28.9911   52.3127 C   0  0  0  1  0  0
   -9.0827  -28.8160   53.6334 C   0  0  0  1  0  0
   -9.0835  -27.7263   54.1561 O   0  0  0  1  0  0
   -9.7521  -29.8327   54.1983 O   0  0  0  1  0  0
   -9.1736  -28.9846   51.0494 C   0  0  0  1  0  0
   -8.5135  -30.2638   51.4932 C   0  0  0  1  0  0
   -5.7880  -29.0770   52.1583 C   0  0  0  1  0  0
   -4.5308  -28.4497   52.0611 C   0  0  0  1  0  0
   -1.9877  -27.1584   51.4325 C   0  0  0  1  0  0
   -1.3392  -26.4063   50.2480 C   0  0  0  1  0  0
   -0.7961  -25.9813   46.2259 H   0  0
   -1.5940  -25.5460   47.7485 H   0  0
   -0.2805  -26.7597   47.7512 H   0  0
    1.2175  -25.0671   46.9346 H   0  0
   -1.0815  -23.1120   47.3212 H   0  0
   -0.2836  -23.5472   45.7986 H   0  0
    0.6014  -22.5871   47.0205 H   0  0
    2.8783  -24.1920   47.7591 H   0  0
    4.3024  -23.8388   49.7460 H   0  0
    3.3039  -23.9649   52.0209 H   0  0
    0.8940  -24.4272   52.2942 H   0  0
   -3.1922  -25.3625   48.8873 H   0  0
   -5.0338  -25.1524   47.4748 H   0  0
   -5.3200  -21.8148   44.8799 H   0  0
   -3.3090  -20.8072   45.9464 H   0  0
   -1.4318  -23.4639   52.0866 H   0  0
   -0.8147  -25.0120   52.6226 H   0  0
   -3.1147  -24.8503   53.3537 H   0  0
   -3.6652  -24.3733   51.7408 H   0  0
   -5.5413  -25.1863   52.1998 H   0  0
   -7.7591  -26.2967   52.3869 H   0  0
   -9.0285  -30.5872   54.2966 H   0  0
   -8.6446  -28.5268   50.2136 H   0  0
  -10.2377  -28.9768   51.2855 H   0  0
   -9.2240  -30.9408   51.9675 H   0  0
   -7.6297  -30.4898   50.8966 H   0  0
   -5.8510  -30.1652   52.1574 H   0  0
   -3.6302  -29.0587   51.9832 H   0  0
   -2.2901  -28.1529   51.1043 H   0  0
   -1.2587  -27.2595   52.2365 H   0  0
   -0.4015  -26.9034   49.9995 H   0  0
   -1.9829  -26.5213   49.3759 H   0  0
  1  2  1  0
  2  3  1  0
  2  4  1  0
  4  5  2  0
  4  9  1  0
  5  6  1  0
  6  7  2  0
  7  8  1  0
  8  9  2  0
  9 10  1  0
 10 11  1  0
 10 20  1  0
 10 36  1  0
 11 12  2  0
 11 13  1  0
 13 14  1  0
 14 15  2  0
 14 19  1  0
 15 16  1  0
 16 17  2  0
 17 18  1  0
 18 19  2  0
 20 21  1  0
 21 22  1  0
 22 23  1  0
 22 35  1  0
 23 24  2  0
 23 34  1  0
 24 25  1  0
 25 26  2  0
 26 27  1  0
 26 33  1  0
 27 28  1  0
 27 31  1  0
 27 32  1  0
 28 29  2  0
 28 30  1  0
 31 32  1  0
 33 34  2  0
 35 36  1  0
  1 37  1  0
  1 38  1  0
  1 39  1  0
  2 40  1  0
  3 41  1  0
  3 42  1  0
  3 43  1  0
  5 44  1  0
  6 45  1  0
  7 46  1  0
  8 47  1  0
 13 48  1  0
 15 49  1  0
 17 50  1  0
 18 51  1  0
 20 52  1  0
 20 53  1  0
 21 54  1  0
 21 55  1  0
 24 56  1  0
 25 57  1  0
 30 58  1  0
 31 59  1  0
 31 60  1  0
 32 61  1  0
 32 62  1  0
 33 63  1  0
 34 64  1  0
 35 65  1  0
 35 66  1  0
 36 67  1  0
 36 68  1  0
M  END
> <Name>
Molecule

> <AbsoluteEnergy>
80.0828

> <Clean Energy>
198.799

> <ConfNumber>
103

> <MOL_NUMBER>
8

> <RelativeEnergy>
18.5338

> <POSE_NUMBER>
17

> <LibDockScore>
129.7996

> <HotSpots>
2.67,-23.92,48.98,A,32,6
-5.13,-22.92,46.19,A,18,18
-9.33,-29.92,51.19,A,52,31

$$$$
Molecule
  SciTegic05072616053D

 68 72  0  0  0  0            999 V2000
   -7.4700  -26.4233   51.3831 C   0  0  0  1  0  0
   -5.9861  -25.9944   51.3691 C   0  0  0  1  0  0
   -5.3708  -26.1521   52.7745 C   0  0  0  1  0  0
   -5.7924  -24.6002   50.7960 C   0  0  0  1  0  0
   -6.9429  -23.7831   50.7813 C   0  0  0  1  0  0
   -6.9032  -22.4692   50.3026 C   0  0  0  1  0  0
   -5.6939  -21.9352   49.8506 C   0  0  0  1  0  0
   -4.5320  -22.7213   49.8640 C   0  0  0  1  0  0
   -4.5440  -24.0824   50.2922 C   0  0  0  1  0  0
   -3.2577  -24.9407   50.2304 C   0  0  0  1  0  0
   -2.0531  -24.2438   49.5276 C   0  0  0  1  0  0
   -1.0173  -24.1433   50.1465 O   0  0  0  1  0  0
   -2.1323  -23.7216   48.2313 N   0  0  0  1  0  0
   -1.1344  -23.0368   47.5272 C   0  0  0  1  0  0
    0.2352  -23.0401   47.9124 C   0  0  0  1  0  0
    1.1766  -22.3402   47.2122 N   0  0  0  1  0  0
    0.7903  -21.6292   46.1153 C   0  0  0  1  0  0
   -0.5574  -21.6210   45.7066 C   0  0  0  1  0  0
   -1.5005  -22.3215   46.4068 N   0  0  0  1  0  0
   -3.5068  -26.3018   49.4573 C   0  0  0  1  0  0
   -2.8866  -27.6248   50.0105 C   0  0  0  1  0  0
   -2.6038  -27.6324   51.4753 N   0  0  0  1  0  0
   -2.9305  -28.6896   52.3379 C   0  0  0  1  0  0
   -2.4433  -28.6991   53.6670 C   0  0  0  1  0  0
   -2.8126  -29.7120   54.5723 C   0  0  0  1  0  0
   -3.6833  -30.7437   54.1761 C   0  0  0  1  0  0
   -4.1664  -31.7700   55.1948 C   0  0  0  1  0  0
   -3.6804  -33.2145   55.0291 C   0  0  0  1  0  0
   -2.8362  -33.6599   55.7750 O   0  0  0  1  0  0
   -4.2181  -33.9997   54.0914 O   0  0  0  1  0  0
   -5.5581  -31.5772   55.7853 C   0  0  0  1  0  0
   -4.3446  -31.3069   56.6354 C   0  0  0  1  0  0
   -4.1215  -30.7840   52.8357 C   0  0  0  1  0  0
   -3.7582  -29.7637   51.9291 C   0  0  0  1  0  0
   -1.9253  -26.4064   51.9551 C   0  0  0  1  0  0
   -2.8386  -25.1936   51.7244 C   0  0  0  1  0  0
   -8.0160  -25.7998   52.0910 H   0  0
   -7.5383  -27.4655   51.6950 H   0  0
   -7.8980  -26.3092   50.3872 H   0  0
   -5.4476  -26.6609   50.6954 H   0  0
   -5.4449  -27.1950   53.0826 H   0  0
   -5.9226  -25.5293   53.4786 H   0  0
   -4.3243  -25.8478   52.7570 H   0  0
   -7.8856  -24.1856   51.1520 H   0  0
   -7.8106  -21.8655   50.2824 H   0  0
   -5.6532  -20.9082   49.4877 H   0  0
   -3.5910  -22.2787   49.5372 H   0  0
   -3.0617  -23.8618   47.7200 H   0  0
    0.5406  -23.6147   48.7869 H   0  0
    1.5302  -21.0626   45.5500 H   0  0
   -0.8513  -21.0516   44.8248 H   0  0
   -3.1611  -26.1748   48.4314 H   0  0
   -4.5836  -26.4478   49.3725 H   0  0
   -1.9568  -27.8250   49.4780 H   0  0
   -3.5635  -28.4488   49.7848 H   0  0
   -1.7698  -27.9075   53.9955 H   0  0
   -2.4205  -29.6968   55.5892 H   0  0
   -4.0836  -33.4700   53.1948 H   0  0
   -6.0214  -32.5316   56.0356 H   0  0
   -6.0168  -30.6538   55.4317 H   0  0
   -4.1540  -30.2386   56.7380 H   0  0
   -4.1576  -32.1167   57.3406 H   0  0
   -4.7463  -31.6103   52.4966 H   0  0
   -4.1195  -29.8035   50.9015 H   0  0
   -1.7112  -26.5022   53.0196 H   0  0
   -0.9930  -26.2677   51.4077 H   0  0
   -2.3340  -24.3035   52.1002 H   0  0
   -3.7403  -25.3203   52.3236 H   0  0
  1  2  1  0
  2  3  1  0
  2  4  1  0
  4  5  2  0
  4  9  1  0
  5  6  1  0
  6  7  2  0
  7  8  1  0
  8  9  2  0
  9 10  1  0
 10 11  1  0
 10 20  1  0
 10 36  1  0
 11 12  2  0
 11 13  1  0
 13 14  1  0
 14 15  2  0
 14 19  1  0
 15 16  1  0
 16 17  2  0
 17 18  1  0
 18 19  2  0
 20 21  1  0
 21 22  1  0
 22 23  1  0
 22 35  1  0
 23 24  2  0
 23 34  1  0
 24 25  1  0
 25 26  2  0
 26 27  1  0
 26 33  1  0
 27 28  1  0
 27 31  1  0
 27 32  1  0
 28 29  2  0
 28 30  1  0
 31 32  1  0
 33 34  2  0
 35 36  1  0
  1 37  1  0
  1 38  1  0
  1 39  1  0
  2 40  1  0
  3 41  1  0
  3 42  1  0
  3 43  1  0
  5 44  1  0
  6 45  1  0
  7 46  1  0
  8 47  1  0
 13 48  1  0
 15 49  1  0
 17 50  1  0
 18 51  1  0
 20 52  1  0
 20 53  1  0
 21 54  1  0
 21 55  1  0
 24 56  1  0
 25 57  1  0
 30 58  1  0
 31 59  1  0
 31 60  1  0
 32 61  1  0
 32 62  1  0
 33 63  1  0
 34 64  1  0
 35 65  1  0
 35 66  1  0
 36 67  1  0
 36 68  1  0
M  END
> <Name>
Molecule

> <AbsoluteEnergy>
75.4765

> <Clean Energy>
198.799

> <ConfNumber>
67

> <MOL_NUMBER>
8

> <RelativeEnergy>
13.9275

> <POSE_NUMBER>
18

> <LibDockScore>
129.6964

> <HotSpots>
-6.13,-22.12,49.98,A,41,6
-4.93,-33.72,54.59,P,51,30
-4.13,-31.12,56.59,A,79,32

$$$$
Molecule
  SciTegic05072616053D

 68 72  0  0  0  0            999 V2000
   -5.3955  -25.3462   50.2889 C   0  0  0  1  0  0
   -3.8683  -25.1447   50.2200 C   0  0  0  1  0  0
   -3.5559  -24.1459   49.0803 C   0  0  0  1  0  0
   -3.1302  -26.4704   50.1662 C   0  0  0  1  0  0
   -2.2866  -26.6963   49.0474 C   0  0  0  1  0  0
   -1.5984  -27.8986   48.8703 C   0  0  0  1  0  0
   -1.7553  -28.9256   49.7981 C   0  0  0  1  0  0
   -2.5735  -28.7312   50.9158 C   0  0  0  1  0  0
   -3.2429  -27.5031   51.1691 C   0  0  0  1  0  0
   -4.0347  -27.4343   52.5038 C   0  0  0  1  0  0
   -5.3028  -28.2996   52.3834 C   0  0  0  1  0  0
   -5.4185  -29.0592   51.4451 O   0  0  0  1  0  0
   -6.3071  -28.2157   53.3412 N   0  0  0  1  0  0
   -7.5625  -28.8191   53.3040 C   0  0  0  1  0  0
   -8.3669  -28.8164   54.4739 C   0  0  0  1  0  0
   -9.6035  -29.3930   54.4874 N   0  0  0  1  0  0
  -10.0644  -29.9809   53.3479 C   0  0  0  1  0  0
   -9.2791  -29.9927   52.1775 C   0  0  0  1  0  0
   -8.0446  -29.4155   52.1664 N   0  0  0  1  0  0
   -3.1454  -27.9440   53.6985 C   0  0  0  1  0  0
   -1.8027  -27.1832   53.8409 C   0  0  0  1  0  0
   -1.8822  -25.8065   53.2523 N   0  0  0  1  0  0
   -0.8429  -25.2743   52.4835 C   0  0  0  1  0  0
   -1.0957  -24.4193   51.3847 C   0  0  0  1  0  0
   -0.0574  -24.0063   50.5373 C   0  0  0  1  0  0
    1.2576  -24.4375   50.7717 C   0  0  0  1  0  0
    2.3471  -24.0948   49.7838 C   0  0  0  1  0  0
    2.1612  -24.8079   48.4420 C   0  0  0  1  0  0
    2.1744  -24.1588   47.4211 O   0  0  0  1  0  0
    1.9837  -26.1324   48.4167 O   0  0  0  1  0  0
    2.9183  -22.6845   49.7956 C   0  0  0  1  0  0
    3.7632  -23.8404   50.2790 C   0  0  0  1  0  0
    1.5422  -25.2037   51.9132 C   0  0  0  1  0  0
    0.5038  -25.6083   52.7660 C   0  0  0  1  0  0
   -3.1939  -25.1212   53.4732 C   0  0  0  1  0  0
   -4.3999  -26.0041   53.0363 C   0  0  0  1  0  0
   -5.7607  -25.7497   49.3445 H   0  0
   -5.8874  -24.3959   50.4963 H   0  0
   -5.6263  -26.0489   51.0895 H   0  0
   -3.4874  -24.6934   51.1361 H   0  0
   -4.0380  -23.1892   49.2813 H   0  0
   -3.9113  -24.5430   48.1295 H   0  0
   -2.4777  -23.9964   49.0231 H   0  0
   -2.1724  -25.9075   48.3038 H   0  0
   -0.9419  -28.0326   48.0105 H   0  0
   -1.2427  -29.8767   49.6538 H   0  0
   -2.7028  -29.5533   51.6198 H   0  0
   -6.0917  -27.6208   54.2041 H   0  0
   -7.9887  -28.3438   55.3804 H   0  0
  -11.0499  -30.4466   53.3414 H   0  0
   -9.6622  -30.4672   51.2741 H   0  0
   -2.9355  -29.0041   53.5565 H   0  0
   -3.7080  -27.8414   54.6264 H   0  0
   -1.5452  -27.1054   54.8972 H   0  0
   -1.0170  -27.7431   53.3338 H   0  0
   -2.1127  -24.0765   51.1941 H   0  0
   -0.2721  -23.3490   49.6947 H   0  0
    1.1506  -26.3031   49.0326 H   0  0
    2.5237  -22.0999   50.6266 H   0  0
    3.2104  -22.3634   48.7958 H   0  0
    4.5055  -24.1338   49.5367 H   0  0
    3.8175  -23.8713   51.3672 H   0  0
    2.5712  -25.4847   52.1374 H   0  0
    0.7373  -26.1882   53.6589 H   0  0
   -3.2102  -24.1904   52.9063 H   0  0
   -3.2949  -24.8783   54.5310 H   0  0
   -5.0762  -26.1103   53.8845 H   0  0
   -4.9531  -25.4752   52.2602 H   0  0
  1  2  1  0
  2  3  1  0
  2  4  1  0
  4  5  2  0
  4  9  1  0
  5  6  1  0
  6  7  2  0
  7  8  1  0
  8  9  2  0
  9 10  1  0
 10 11  1  0
 10 20  1  0
 10 36  1  0
 11 12  2  0
 11 13  1  0
 13 14  1  0
 14 15  2  0
 14 19  1  0
 15 16  1  0
 16 17  2  0
 17 18  1  0
 18 19  2  0
 20 21  1  0
 21 22  1  0
 22 23  1  0
 22 35  1  0
 23 24  2  0
 23 34  1  0
 24 25  1  0
 25 26  2  0
 26 27  1  0
 26 33  1  0
 27 28  1  0
 27 31  1  0
 27 32  1  0
 28 29  2  0
 28 30  1  0
 31 32  1  0
 33 34  2  0
 35 36  1  0
  1 37  1  0
  1 38  1  0
  1 39  1  0
  2 40  1  0
  3 41  1  0
  3 42  1  0
  3 43  1  0
  5 44  1  0
  6 45  1  0
  7 46  1  0
  8 47  1  0
 13 48  1  0
 15 49  1  0
 17 50  1  0
 18 51  1  0
 20 52  1  0
 20 53  1  0
 21 54  1  0
 21 55  1  0
 24 56  1  0
 25 57  1  0
 30 58  1  0
 31 59  1  0
 31 60  1  0
 32 61  1  0
 32 62  1  0
 33 63  1  0
 34 64  1  0
 35 65  1  0
 35 66  1  0
 36 67  1  0
 36 68  1  0
M  END
> <Name>
Molecule

> <AbsoluteEnergy>
78.648

> <Clean Energy>
198.799

> <ConfNumber>
93

> <MOL_NUMBER>
8

> <RelativeEnergy>
17.099

> <POSE_NUMBER>
19

> <LibDockScore>
129.164

> <HotSpots>
-5.93,-24.72,51.19,A,53,1
-9.53,-30.12,52.78,A,62,18
2.67,-22.92,49.98,A,39,31

$$$$
Molecule
  SciTegic05072616053D

 68 72  0  0  0  0            999 V2000
   -6.3498  -22.7584   50.0098 C   0  0  0  1  0  0
   -4.8924  -23.2792   49.9866 C   0  0  0  1  0  0
   -3.9529  -22.1198   50.3736 C   0  0  0  1  0  0
   -4.4508  -23.9652   48.7014 C   0  0  0  1  0  0
   -5.2420  -23.7241   47.5474 C   0  0  0  1  0  0
   -4.9301  -24.2784   46.3038 C   0  0  0  1  0  0
   -3.8014  -25.0809   46.1737 C   0  0  0  1  0  0
   -2.9974  -25.3332   47.2875 C   0  0  0  1  0  0
   -3.2905  -24.8200   48.5818 C   0  0  0  1  0  0
   -2.3048  -25.2096   49.7167 C   0  0  0  1  0  0
   -1.0154  -24.3768   49.5828 C   0  0  0  1  0  0
   -0.9630  -23.4711   48.7778 O   0  0  0  1  0  0
    0.0858  -24.6611   50.3821 N   0  0  0  1  0  0
    1.3799  -24.1634   50.2601 C   0  0  0  1  0  0
    2.4049  -24.7076   51.0784 C   0  0  0  1  0  0
    3.6904  -24.2599   51.0004 N   0  0  0  1  0  0
    3.9852  -23.2676   50.1135 C   0  0  0  1  0  0
    2.9808  -22.7148   49.2934 C   0  0  0  1  0  0
    1.6952  -23.1640   49.3740 N   0  0  0  1  0  0
   -1.9078  -26.7305   49.6538 C   0  0  0  1  0  0
   -3.1036  -27.6841   49.8509 C   0  0  0  1  0  0
   -3.7718  -27.4209   51.1591 N   0  0  0  1  0  0
   -4.0361  -28.4227   52.0890 C   0  0  0  1  0  0
   -3.3811  -29.6730   52.0169 C   0  0  0  1  0  0
   -3.6411  -30.6754   52.9648 C   0  0  0  1  0  0
   -4.5536  -30.4433   54.0083 C   0  0  0  1  0  0
   -4.8101  -31.5129   55.0411 C   0  0  0  1  0  0
   -3.9022  -31.3792   56.2518 C   0  0  0  1  0  0
   -2.8424  -31.9627   56.2607 O   0  0  0  1  0  0
   -4.2979  -30.6179   57.2717 O   0  0  0  1  0  0
   -5.2027  -32.9090   54.5811 C   0  0  0  1  0  0
   -6.2246  -32.0283   55.2569 C   0  0  0  1  0  0
   -5.2166  -29.2066   54.0872 C   0  0  0  1  0  0
   -4.9637  -28.2071   53.1336 C   0  0  0  1  0  0
   -4.1139  -25.9906   51.4146 C   0  0  0  1  0  0
   -2.8786  -25.0983   51.1643 C   0  0  0  1  0  0
   -6.4659  -21.9448   49.2938 H   0  0
   -6.6034  -22.4060   51.0096 H   0  0
   -7.0229  -23.5713   49.7373 H   0  0
   -4.8392  -24.0858   50.7178 H   0  0
   -4.1936  -21.7640   51.3754 H   0  0
   -4.0561  -21.3027   49.6596 H   0  0
   -2.9230  -22.4764   50.3603 H   0  0
   -6.1212  -23.0858   47.6347 H   0  0
   -5.5670  -24.0834   45.4410 H   0  0
   -3.5453  -25.5114   45.2056 H   0  0
   -2.1075  -25.9495   47.1598 H   0  0
   -0.0815  -25.3447   51.1880 H   0  0
    2.1586  -25.5007   51.7844 H   0  0
    5.0078  -22.8979   50.0377 H   0  0
    3.2334  -21.9221   48.5892 H   0  0
   -1.4486  -26.9365   48.6870 H   0  0
   -1.1638  -26.9350   50.4237 H   0  0
   -3.8209  -27.5353   49.0438 H   0  0
   -2.7518  -28.7155   49.8276 H   0  0
   -2.6659  -29.8612   51.2162 H   0  0
   -3.1335  -31.6372   52.8912 H   0  0
   -5.2276  -31.0097   57.5626 H   0  0
   -4.8216  -33.6747   55.2568 H   0  0
   -5.3538  -32.9462   53.5023 H   0  0
   -6.9217  -31.5966   54.5387 H   0  0
   -6.3883  -32.3238   56.2932 H   0  0
   -5.9294  -29.0226   54.8911 H   0  0
   -5.4887  -27.2542   53.1997 H   0  0
   -4.4400  -25.8744   52.4482 H   0  0
   -4.9205  -25.6866   50.7475 H   0  0
   -3.1499  -24.0606   51.3582 H   0  0
   -2.0983  -25.3712   51.8748 H   0  0
  1  2  1  0
  2  3  1  0
  2  4  1  0
  4  5  2  0
  4  9  1  0
  5  6  1  0
  6  7  2  0
  7  8  1  0
  8  9  2  0
  9 10  1  0
 10 11  1  0
 10 20  1  0
 10 36  1  0
 11 12  2  0
 11 13  1  0
 13 14  1  0
 14 15  2  0
 14 19  1  0
 15 16  1  0
 16 17  2  0
 17 18  1  0
 18 19  2  0
 20 21  1  0
 21 22  1  0
 22 23  1  0
 22 35  1  0
 23 24  2  0
 23 34  1  0
 24 25  1  0
 25 26  2  0
 26 27  1  0
 26 33  1  0
 27 28  1  0
 27 31  1  0
 27 32  1  0
 28 29  2  0
 28 30  1  0
 31 32  1  0
 33 34  2  0
 35 36  1  0
  1 37  1  0
  1 38  1  0
  1 39  1  0
  2 40  1  0
  3 41  1  0
  3 42  1  0
  3 43  1  0
  5 44  1  0
  6 45  1  0
  7 46  1  0
  8 47  1  0
 13 48  1  0
 15 49  1  0
 17 50  1  0
 18 51  1  0
 20 52  1  0
 20 53  1  0
 21 54  1  0
 21 55  1  0
 24 56  1  0
 25 57  1  0
 30 58  1  0
 31 59  1  0
 31 60  1  0
 32 61  1  0
 32 62  1  0
 33 63  1  0
 34 64  1  0
 35 65  1  0
 35 66  1  0
 36 67  1  0
 36 68  1  0
M  END
> <Name>
Molecule

> <AbsoluteEnergy>
71.2981

> <Clean Energy>
198.799

> <ConfNumber>
37

> <MOL_NUMBER>
8

> <RelativeEnergy>
9.74907

> <POSE_NUMBER>
20

> <LibDockScore>
128.7249

> <HotSpots>
-4.93,-23.52,47.59,A,26,5
4.07,-23.72,49.78,A,37,17
-4.13,-30.52,57.38,P,71,30

$$$$
Molecule
  SciTegic05072616053D

 68 72  0  0  0  0            999 V2000
  -10.8575  -27.9107   62.8931 C   0  0  0  1  0  0
  -10.3121  -27.0077   61.7605 C   0  0  0  1  0  0
   -9.1990  -26.1134   62.3416 C   0  0  0  1  0  0
  -11.3505  -26.1996   60.9949 C   0  0  0  1  0  0
  -12.6847  -26.2590   61.4767 C   0  0  0  1  0  0
  -13.7244  -25.5467   60.8747 C   0  0  0  1  0  0
  -13.4552  -24.7359   59.7769 C   0  0  0  1  0  0
  -12.1524  -24.6493   59.2812 C   0  0  0  1  0  0
  -11.0658  -25.3803   59.8377 C   0  0  0  1  0  0
   -9.6838  -25.1853   59.1569 C   0  0  0  1  0  0
   -8.9319  -24.0310   59.8469 C   0  0  0  1  0  0
   -9.4137  -23.4948   60.8223 O   0  0  0  1  0  0
   -7.7040  -23.6043   59.3544 N   0  0  0  1  0  0
   -6.9298  -22.5372   59.8009 C   0  0  0  1  0  0
   -5.6263  -22.3630   59.2653 C   0  0  0  1  0  0
   -4.8246  -21.3349   59.6644 N   0  0  0  1  0  0
   -5.2965  -20.4619   60.5990 C   0  0  0  1  0  0
   -6.5875  -20.6192   61.1425 C   0  0  0  1  0  0
   -7.3873  -21.6492   60.7420 N   0  0  0  1  0  0
   -9.8256  -24.8277   57.6315 C   0  0  0  1  0  0
  -10.4996  -25.9393   56.8020 C   0  0  0  1  0  0
   -9.7367  -27.2163   56.9219 N   0  0  0  1  0  0
   -9.3187  -27.9547   55.8183 C   0  0  0  1  0  0
   -9.2695  -27.3736   54.5309 C   0  0  0  1  0  0
   -8.8345  -28.1184   53.4232 C   0  0  0  1  0  0
   -8.4313  -29.4553   53.5833 C   0  0  0  1  0  0
   -7.9385  -30.2444   52.3955 C   0  0  0  1  0  0
   -6.4258  -30.3834   52.3792 C   0  0  0  1  0  0
   -5.7423  -29.3852   52.3937 O   0  0  0  1  0  0
   -5.8922  -31.6044   52.3532 O   0  0  0  1  0  0
   -8.6682  -30.1178   51.0665 C   0  0  0  1  0  0
   -8.7719  -31.3977   51.8586 C   0  0  0  1  0  0
   -8.4821  -30.0469   54.8572 C   0  0  0  1  0  0
   -8.9261  -29.3048   55.9637 C   0  0  0  1  0  0
   -9.4260  -27.6348   58.3207 C   0  0  0  1  0  0
   -8.7864  -26.4611   59.0943 C   0  0  0  1  0  0
  -11.2688  -27.2961   63.6939 H   0  0
  -10.0579  -28.5385   63.2864 H   0  0
  -11.6460  -28.5477   62.4923 H   0  0
   -9.9170  -27.6748   60.9944 H   0  0
   -8.3905  -26.7315   62.7320 H   0  0
   -9.6014  -25.4891   63.1394 H   0  0
   -8.8078  -25.4729   61.5512 H   0  0
  -12.9048  -26.8807   62.3446 H   0  0
  -14.7400  -25.6256   61.2625 H   0  0
  -14.2585  -24.1700   59.3051 H   0  0
  -11.9598  -23.9938   58.4319 H   0  0
   -7.3062  -24.1634   58.5334 H   0  0
   -5.2585  -23.0667   58.5186 H   0  0
   -4.6692  -19.6339   60.9293 H   0  0
   -6.9497  -19.9121   61.8888 H   0  0
  -10.4103  -23.9128   57.5355 H   0  0
   -8.8356  -24.6322   57.2195 H   0  0
  -11.5168  -26.0924   57.1625 H   0  0
  -10.5354  -25.6385   55.7549 H   0  0
   -9.5728  -26.3353   54.3965 H   0  0
   -8.8094  -27.6582   52.4354 H   0  0
   -6.3036  -32.0661   51.5046 H   0  0
   -7.9848  -30.2204   50.2236 H   0  0
   -9.5689  -29.5114   51.1617 H   0  0
   -9.7285  -31.4747   52.3754 H   0  0
   -8.1435  -32.1831   51.4386 H   0  0
   -8.1759  -31.0850   54.9867 H   0  0
   -8.9685  -29.7753   56.9460 H   0  0
   -8.7329  -28.4759   58.3025 H   0  0
  -10.3458  -27.9386   58.8204 H   0  0
   -8.5663  -26.7887   60.1104 H   0  0
   -7.8392  -26.2029   58.6208 H   0  0
  1  2  1  0
  2  3  1  0
  2  4  1  0
  4  5  2  0
  4  9  1  0
  5  6  1  0
  6  7  2  0
  7  8  1  0
  8  9  2  0
  9 10  1  0
 10 11  1  0
 10 20  1  0
 10 36  1  0
 11 12  2  0
 11 13  1  0
 13 14  1  0
 14 15  2  0
 14 19  1  0
 15 16  1  0
 16 17  2  0
 17 18  1  0
 18 19  2  0
 20 21  1  0
 21 22  1  0
 22 23  1  0
 22 35  1  0
 23 24  2  0
 23 34  1  0
 24 25  1  0
 25 26  2  0
 26 27  1  0
 26 33  1  0
 27 28  1  0
 27 31  1  0
 27 32  1  0
 28 29  2  0
 28 30  1  0
 31 32  1  0
 33 34  2  0
 35 36  1  0
  1 37  1  0
  1 38  1  0
  1 39  1  0
  2 40  1  0
  3 41  1  0
  3 42  1  0
  3 43  1  0
  5 44  1  0
  6 45  1  0
  7 46  1  0
  8 47  1  0
 13 48  1  0
 15 49  1  0
 17 50  1  0
 18 51  1  0
 20 52  1  0
 20 53  1  0
 21 54  1  0
 21 55  1  0
 24 56  1  0
 25 57  1  0
 30 58  1  0
 31 59  1  0
 31 60  1  0
 32 61  1  0
 32 62  1  0
 33 63  1  0
 34 64  1  0
 35 65  1  0
 35 66  1  0
 36 67  1  0
 36 68  1  0
M  END
> <Name>
Molecule

> <AbsoluteEnergy>
71.2981

> <Clean Energy>
198.799

> <ConfNumber>
37

> <MOL_NUMBER>
8

> <RelativeEnergy>
9.74907

> <POSE_NUMBER>
21

> <LibDockScore>
128.6128

> <HotSpots>
-6.73,-23.12,59.38,A,84,15
-7.93,-28.32,52.38,A,59,25
-7.13,-31.92,50.98,A,49,32

$$$$
Molecule
  SciTegic05072616053D

 68 72  0  0  0  0            999 V2000
    0.3498  -23.7456   46.3028 C   0  0  0  1  0  0
    0.2666  -25.0046   47.1912 C   0  0  0  1  0  0
    1.2101  -26.1108   46.6812 C   0  0  0  1  0  0
    0.5063  -24.6795   48.6503 C   0  0  0  1  0  0
    1.8334  -24.3501   49.0117 C   0  0  0  1  0  0
    2.1672  -24.0127   50.3265 C   0  0  0  1  0  0
    1.1723  -23.9887   51.3062 C   0  0  0  1  0  0
   -0.1493  -24.3127   50.9718 C   0  0  0  1  0  0
   -0.5197  -24.6820   49.6539 C   0  0  0  1  0  0
   -1.9782  -25.0544   49.3462 C   0  0  0  1  0  0
   -2.4004  -24.5504   47.9558 C   0  0  0  1  0  0
   -2.7455  -25.3627   47.1261 O   0  0  0  1  0  0
   -2.3826  -23.1926   47.6606 N   0  0  0  1  0  0
   -3.1667  -22.5164   46.7274 C   0  0  0  1  0  0
   -4.4230  -22.9972   46.2552 C   0  0  0  1  0  0
   -5.1463  -22.3012   45.3275 N   0  0  0  1  0  0
   -4.6505  -21.1196   44.8611 C   0  0  0  1  0  0
   -3.4143  -20.6218   45.3280 C   0  0  0  1  0  0
   -2.6901  -21.3200   46.2513 N   0  0  0  1  0  0
   -3.0449  -24.3936   50.3019 C   0  0  0  1  0  0
   -3.2234  -25.0461   51.6941 C   0  0  0  1  0  0
   -3.4264  -26.5056   51.5334 N   0  0  0  1  0  0
   -4.6019  -27.1767   51.8769 C   0  0  0  1  0  0
   -4.6450  -28.5885   51.9460 C   0  0  0  1  0  0
   -5.8510  -29.2641   52.2007 C   0  0  0  1  0  0
   -7.0382  -28.5399   52.4138 C   0  0  0  1  0  0
   -8.3496  -29.2628   52.6199 C   0  0  0  1  0  0
   -8.8423  -29.9303   51.3419 C   0  0  0  1  0  0
   -8.3449  -30.9803   50.9987 O   0  0  0  1  0  0
   -9.8051  -29.3393   50.6205 O   0  0  0  1  0  0
   -8.6401  -29.9485   53.9507 C   0  0  0  1  0  0
   -9.3706  -28.6786   53.5861 C   0  0  0  1  0  0
   -6.9988  -27.1359   52.4171 C   0  0  0  1  0  0
   -5.7949  -26.4604   52.1467 C   0  0  0  1  0  0
   -2.2683  -27.1609   50.8794 C   0  0  0  1  0  0
   -2.1514  -26.6128   49.4492 C   0  0  0  1  0  0
    0.0753  -24.0176   45.2836 H   0  0
    1.3767  -23.3802   46.3088 H   0  0
   -0.3229  -22.9738   46.6769 H   0  0
   -0.7505  -25.3902   47.1208 H   0  0
    2.2311  -25.7291   46.6846 H   0  0
    0.9297  -26.3665   45.6594 H   0  0
    1.1392  -26.9919   47.3190 H   0  0
    2.6121  -24.3595   48.2491 H   0  0
    3.1977  -23.7698   50.5855 H   0  0
    1.4240  -23.7178   52.3316 H   0  0
   -0.9147  -24.2799   51.7472 H   0  0
   -1.6864  -22.5973   48.2137 H   0  0
   -4.8144  -23.9383   46.6416 H   0  0
   -5.2145  -20.5533   44.1199 H   0  0
   -3.0353  -19.6729   44.9484 H   0  0
   -2.7780  -23.3466   50.4454 H   0  0
   -4.0105  -24.3950   49.7963 H   0  0
   -2.3323  -24.8678   52.2960 H   0  0
   -4.0907  -24.6120   52.1915 H   0  0
   -3.7293  -29.1614   51.7996 H   0  0
   -5.8665  -30.3535   52.2332 H   0  0
   -9.4320  -28.3819   50.4043 H   0  0
   -7.8484  -29.7632   54.6766 H   0  0
   -9.2700  -30.8280   53.8169 H   0  0
  -10.3909  -28.8807   53.2603 H   0  0
   -8.9690  -27.8162   54.1182 H   0  0
   -7.9043  -26.5677   52.6299 H   0  0
   -5.7792  -25.3705   52.1446 H   0  0
   -2.4264  -28.2389   50.8459 H   0  0
   -1.3575  -26.9341   51.4335 H   0  0
   -1.3026  -27.0925   48.9619 H   0  0
   -3.0423  -26.9028   48.8921 H   0  0
  1  2  1  0
  2  3  1  0
  2  4  1  0
  4  5  2  0
  4  9  1  0
  5  6  1  0
  6  7  2  0
  7  8  1  0
  8  9  2  0
  9 10  1  0
 10 11  1  0
 10 20  1  0
 10 36  1  0
 11 12  2  0
 11 13  1  0
 13 14  1  0
 14 15  2  0
 14 19  1  0
 15 16  1  0
 16 17  2  0
 17 18  1  0
 18 19  2  0
 20 21  1  0
 21 22  1  0
 22 23  1  0
 22 35  1  0
 23 24  2  0
 23 34  1  0
 24 25  1  0
 25 26  2  0
 26 27  1  0
 26 33  1  0
 27 28  1  0
 27 31  1  0
 27 32  1  0
 28 29  2  0
 28 30  1  0
 31 32  1  0
 33 34  2  0
 35 36  1  0
  1 37  1  0
  1 38  1  0
  1 39  1  0
  2 40  1  0
  3 41  1  0
  3 42  1  0
  3 43  1  0
  5 44  1  0
  6 45  1  0
  7 46  1  0
  8 47  1  0
 13 48  1  0
 15 49  1  0
 17 50  1  0
 18 51  1  0
 20 52  1  0
 20 53  1  0
 21 54  1  0
 21 55  1  0
 24 56  1  0
 25 57  1  0
 30 58  1  0
 31 59  1  0
 31 60  1  0
 32 61  1  0
 32 62  1  0
 33 63  1  0
 34 64  1  0
 35 65  1  0
 35 66  1  0
 36 67  1  0
 36 68  1  0
M  END
> <Name>
Molecule

> <AbsoluteEnergy>
65.9277

> <Clean Energy>
198.799

> <ConfNumber>
10

> <MOL_NUMBER>
8

> <RelativeEnergy>
4.37872

> <POSE_NUMBER>
22

> <LibDockScore>
128.584

> <HotSpots>
2.67,-23.92,48.98,A,32,5
-3.53,-22.32,46.59,A,20,15
-3.53,-20.52,45.19,A,12,17

$$$$
Molecule
  SciTegic05072616053D

 68 72  0  0  0  0            999 V2000
   -6.1202  -22.6207   50.3019 C   0  0  0  1  0  0
   -4.7065  -23.2145   50.0846 C   0  0  0  1  0  0
   -3.6751  -22.1217   50.4297 C   0  0  0  1  0  0
   -4.4456  -23.8394   48.7170 C   0  0  0  1  0  0
   -5.3352  -23.4726   47.6739 C   0  0  0  1  0  0
   -5.1732  -23.9233   46.3636 C   0  0  0  1  0  0
   -4.0919  -24.7392   46.0477 C   0  0  0  1  0  0
   -3.2022  -25.1301   47.0513 C   0  0  0  1  0  0
   -3.3636  -24.7535   48.4153 C   0  0  0  1  0  0
   -2.3477  -25.3553   49.4315 C   0  0  0  1  0  0
   -0.9515  -24.7516   49.1655 C   0  0  0  1  0  0
   -0.8114  -23.9504   48.2677 O   0  0  0  1  0  0
    0.1340  -25.1176   49.9472 N   0  0  0  1  0  0
    1.4168  -24.5747   49.9954 C   0  0  0  1  0  0
    1.8669  -23.5068   49.1723 C   0  0  0  1  0  0
    3.1401  -23.0235   49.2708 N   0  0  0  1  0  0
    3.9873  -23.5817   50.1793 C   0  0  0  1  0  0
    3.5591  -24.6378   51.0043 C   0  0  0  1  0  0
    2.2889  -25.1206   50.9049 N   0  0  0  1  0  0
   -2.8247  -25.1285   50.9136 C   0  0  0  1  0  0
   -2.3505  -26.0694   52.0442 C   0  0  0  1  0  0
   -2.3678  -27.4874   51.6229 N   0  0  0  1  0  0
   -3.0285  -28.4706   52.3500 C   0  0  0  1  0  0
   -3.2558  -28.3061   53.7346 C   0  0  0  1  0  0
   -3.9670  -29.2735   54.4623 C   0  0  0  1  0  0
   -4.4542  -30.4248   53.8197 C   0  0  0  1  0  0
   -5.2516  -31.4466   54.5905 C   0  0  0  1  0  0
   -6.7345  -31.1145   54.6153 C   0  0  0  1  0  0
   -7.2936  -30.9902   55.6815 O   0  0  0  1  0  0
   -7.3817  -30.9622   53.4601 O   0  0  0  1  0  0
   -4.6322  -32.1196   55.8045 C   0  0  0  1  0  0
   -4.8416  -32.9099   54.5358 C   0  0  0  1  0  0
   -4.2012  -30.6157   52.4505 C   0  0  0  1  0  0
   -3.4951  -29.6461   51.7212 C   0  0  0  1  0  0
   -1.6500  -27.7632   50.3604 C   0  0  0  1  0  0
   -2.2403  -26.9172   49.2232 C   0  0  0  1  0  0
   -6.2727  -21.7616   49.6486 H   0  0
   -6.2471  -22.3205   51.3420 H   0  0
   -6.8622  -23.3822   50.0618 H   0  0
   -4.6150  -24.0713   50.7522 H   0  0
   -3.7823  -21.8174   51.4709 H   0  0
   -3.8079  -21.2586   49.7774 H   0  0
   -2.6732  -22.5246   50.2816 H   0  0
   -6.1741  -22.8160   47.9045 H   0  0
   -5.8891  -23.6380   45.5927 H   0  0
   -3.9393  -25.0723   45.0211 H   0  0
   -2.3479  -25.7498   46.7788 H   0  0
   -0.0389  -25.9383   50.6117 H   0  0
    1.1822  -23.0651   48.4483 H   0  0
    5.0069  -23.2066   50.2681 H   0  0
    4.2483  -25.0728   51.7281 H   0  0
   -2.5565  -24.1108   51.1972 H   0  0
   -3.9147  -25.1319   50.9174 H   0  0
   -1.3361  -25.7965   52.3351 H   0  0
   -3.0017  -25.9471   52.9097 H   0  0
   -2.8755  -27.4199   54.2427 H   0  0
   -4.1419  -29.1313   55.5287 H   0  0
   -7.2240  -31.8592   52.9376 H   0  0
   -5.3840  -32.3593   56.5564 H   0  0
   -3.5885  -31.8321   55.9318 H   0  0
   -3.9094  -33.0441   53.9870 H   0  0
   -5.7057  -33.5700   54.6109 H   0  0
   -4.5543  -31.5192   51.9534 H   0  0
   -3.3051  -29.8019   50.6593 H   0  0
   -1.7462  -28.8201   50.1117 H   0  0
   -0.5950  -27.5182   50.4830 H   0  0
   -1.6509  -27.1019   48.3251 H   0  0
   -3.2362  -27.3000   49.0003 H   0  0
  1  2  1  0
  2  3  1  0
  2  4  1  0
  4  5  2  0
  4  9  1  0
  5  6  1  0
  6  7  2  0
  7  8  1  0
  8  9  2  0
  9 10  1  0
 10 11  1  0
 10 20  1  0
 10 36  1  0
 11 12  2  0
 11 13  1  0
 13 14  1  0
 14 15  2  0
 14 19  1  0
 15 16  1  0
 16 17  2  0
 17 18  1  0
 18 19  2  0
 20 21  1  0
 21 22  1  0
 22 23  1  0
 22 35  1  0
 23 24  2  0
 23 34  1  0
 24 25  1  0
 25 26  2  0
 26 27  1  0
 26 33  1  0
 27 28  1  0
 27 31  1  0
 27 32  1  0
 28 29  2  0
 28 30  1  0
 31 32  1  0
 33 34  2  0
 35 36  1  0
  1 37  1  0
  1 38  1  0
  1 39  1  0
  2 40  1  0
  3 41  1  0
  3 42  1  0
  3 43  1  0
  5 44  1  0
  6 45  1  0
  7 46  1  0
  8 47  1  0
 13 48  1  0
 15 49  1  0
 17 50  1  0
 18 51  1  0
 20 52  1  0
 20 53  1  0
 21 54  1  0
 21 55  1  0
 24 56  1  0
 25 57  1  0
 30 58  1  0
 31 59  1  0
 31 60  1  0
 32 61  1  0
 32 62  1  0
 33 63  1  0
 34 64  1  0
 35 65  1  0
 35 66  1  0
 36 67  1  0
 36 68  1  0
M  END
> <Name>
Molecule

> <AbsoluteEnergy>
76.5901

> <Clean Energy>
198.799

> <ConfNumber>
76

> <MOL_NUMBER>
8

> <RelativeEnergy>
15.0411

> <POSE_NUMBER>
23

> <LibDockScore>
127.8651

> <HotSpots>
-2.53,-22.32,48.19,A,29,3
-4.53,-24.52,46.19,A,17,5
4.07,-23.72,49.78,A,37,17

$$$$
Molecule
  SciTegic05072616053D

 68 72  0  0  0  0            999 V2000
   -0.9167  -25.5714   47.1178 C   0  0  0  1  0  0
   -2.2665  -25.5927   47.8610 C   0  0  0  1  0  0
   -3.4500  -25.5597   46.8748 C   0  0  0  1  0  0
   -2.3530  -26.7577   48.8262 C   0  0  0  1  0  0
   -2.3475  -28.0522   48.2607 C   0  0  0  1  0  0
   -2.4112  -29.1970   49.0651 C   0  0  0  1  0  0
   -2.4727  -29.0638   50.4547 C   0  0  0  1  0  0
   -2.4687  -27.7881   51.0366 C   0  0  0  1  0  0
   -2.4284  -26.6084   50.2515 C   0  0  0  1  0  0
   -2.4395  -25.2272   50.9285 C   0  0  0  1  0  0
   -1.1647  -24.4692   50.5165 C   0  0  0  1  0  0
   -1.2495  -23.4550   49.8620 O   0  0  0  1  0  0
    0.0734  -24.9646   50.9088 N   0  0  0  1  0  0
    1.3358  -24.5005   50.5577 C   0  0  0  1  0  0
    1.5547  -23.4967   49.5756 C   0  0  0  1  0  0
    2.8137  -23.0695   49.2689 N   0  0  0  1  0  0
    3.8732  -23.6342   49.9123 C   0  0  0  1  0  0
    3.6744  -24.6398   50.8787 C   0  0  0  1  0  0
    2.4151  -25.0628   51.1889 N   0  0  0  1  0  0
   -2.3688  -25.2484   52.5005 C   0  0  0  1  0  0
   -3.6168  -25.7524   53.2666 C   0  0  0  1  0  0
   -4.8407  -25.7237   52.4204 N   0  0  0  1  0  0
   -5.7972  -26.7428   52.4071 C   0  0  0  1  0  0
   -7.0567  -26.5684   51.7822 C   0  0  0  1  0  0
   -7.9835  -27.6249   51.7195 C   0  0  0  1  0  0
   -7.6748  -28.8710   52.2906 C   0  0  0  1  0  0
   -8.6303  -30.0370   52.1777 C   0  0  0  1  0  0
   -8.0513  -31.1667   51.3272 C   0  0  0  1  0  0
   -8.7108  -31.6304   50.4260 O   0  0  0  1  0  0
   -6.8216  -31.6114   51.6040 O   0  0  0  1  0  0
   -9.4710  -30.4216   53.3870 C   0  0  0  1  0  0
  -10.1327  -29.7881   52.1863 C   0  0  0  1  0  0
   -6.4532  -29.0397   52.9619 C   0  0  0  1  0  0
   -5.5267  -27.9909   53.0164 C   0  0  0  1  0  0
   -4.9216  -24.5088   51.5704 C   0  0  0  1  0  0
   -3.7633  -24.4573   50.5472 C   0  0  0  1  0  0
   -0.8640  -24.6646   46.5152 H   0  0
   -0.8668  -26.4386   46.4593 H   0  0
   -0.0917  -25.5952   47.8298 H   0  0
   -2.3293  -24.6852   48.4615 H   0  0
   -3.3817  -26.4269   46.2181 H   0  0
   -3.3788  -24.6530   46.2740 H   0  0
   -4.3955  -25.5753   47.4169 H   0  0
   -2.2926  -28.1622   47.1777 H   0  0
   -2.4128  -30.1871   48.6093 H   0  0
   -2.5237  -29.9510   51.0859 H   0  0
   -2.4974  -27.7010   52.1227 H   0  0
    0.0520  -25.8103   51.5640 H   0  0
    0.7008  -23.0600   49.0577 H   0  0
    4.8852  -23.3047   49.6770 H   0  0
    4.5333  -25.0832   51.3824 H   0  0
   -1.5177  -25.8618   52.7963 H   0  0
   -2.1416  -24.2403   52.8472 H   0  0
   -3.7763  -25.1253   54.1437 H   0  0
   -3.4410  -26.7741   53.6033 H   0  0
   -7.3109  -25.6031   51.3443 H   0  0
   -8.9441  -27.4763   51.2263 H   0  0
   -6.8533  -31.9020   52.6125 H   0  0
   -9.3491  -29.7083   54.2021 H   0  0
   -9.6490  -31.4963   53.4242 H   0  0
  -10.6636  -30.5253   51.5839 H   0  0
  -10.3622  -28.7370   52.3612 H   0  0
   -6.2250  -29.9910   53.4427 H   0  0
   -4.5807  -28.1386   53.5373 H   0  0
   -5.8717  -24.5081   51.0362 H   0  0
   -4.8787  -23.6233   52.2046 H   0  0
   -3.5133  -23.4119   50.3662 H   0  0
   -4.1286  -24.8485   49.5977 H   0  0
  1  2  1  0
  2  3  1  0
  2  4  1  0
  4  5  2  0
  4  9  1  0
  5  6  1  0
  6  7  2  0
  7  8  1  0
  8  9  2  0
  9 10  1  0
 10 11  1  0
 10 20  1  0
 10 36  1  0
 11 12  2  0
 11 13  1  0
 13 14  1  0
 14 15  2  0
 14 19  1  0
 15 16  1  0
 16 17  2  0
 17 18  1  0
 18 19  2  0
 20 21  1  0
 21 22  1  0
 22 23  1  0
 22 35  1  0
 23 24  2  0
 23 34  1  0
 24 25  1  0
 25 26  2  0
 26 27  1  0
 26 33  1  0
 27 28  1  0
 27 31  1  0
 27 32  1  0
 28 29  2  0
 28 30  1  0
 31 32  1  0
 33 34  2  0
 35 36  1  0
  1 37  1  0
  1 38  1  0
  1 39  1  0
  2 40  1  0
  3 41  1  0
  3 42  1  0
  3 43  1  0
  5 44  1  0
  6 45  1  0
  7 46  1  0
  8 47  1  0
 13 48  1  0
 15 49  1  0
 17 50  1  0
 18 51  1  0
 20 52  1  0
 20 53  1  0
 21 54  1  0
 21 55  1  0
 24 56  1  0
 25 57  1  0
 30 58  1  0
 31 59  1  0
 31 60  1  0
 32 61  1  0
 32 62  1  0
 33 63  1  0
 34 64  1  0
 35 65  1  0
 35 66  1  0
 36 67  1  0
 36 68  1  0
M  END
> <Name>
Molecule

> <AbsoluteEnergy>
71.5048

> <Clean Energy>
198.799

> <ConfNumber>
40

> <MOL_NUMBER>
8

> <RelativeEnergy>
9.95579

> <POSE_NUMBER>
24

> <LibDockScore>
127.3708

> <HotSpots>
2.67,-22.92,49.98,A,39,18
-7.93,-28.32,52.38,A,59,25
-5.93,-24.72,51.19,A,53,35

$$$$
Molecule
  SciTegic05072616053D

 68 72  0  0  0  0            999 V2000
    1.0193  -23.6156   53.5378 C   0  0  0  1  0  0
    1.2700  -24.8608   52.6677 C   0  0  0  1  0  0
    2.5181  -25.6196   53.1715 C   0  0  0  1  0  0
    1.3381  -24.5039   51.1943 C   0  0  0  1  0  0
    2.5788  -23.9970   50.7409 C   0  0  0  1  0  0
    2.8029  -23.7135   49.3901 C   0  0  0  1  0  0
    1.7862  -23.9369   48.4595 C   0  0  0  1  0  0
    0.5344  -24.3994   48.8903 C   0  0  0  1  0  0
    0.2527  -24.6598   50.2580 C   0  0  0  1  0  0
   -1.1657  -25.1119   50.6587 C   0  0  0  1  0  0
   -2.2053  -25.1044   49.5056 C   0  0  0  1  0  0
   -2.7308  -26.1500   49.1921 O   0  0  0  1  0  0
   -2.5793  -23.9314   48.8490 N   0  0  0  1  0  0
   -3.3702  -23.8976   47.7014 C   0  0  0  1  0  0
   -3.6031  -25.0575   46.9143 C   0  0  0  1  0  0
   -4.4855  -25.0472   45.8796 N   0  0  0  1  0  0
   -5.1012  -23.8788   45.5551 C   0  0  0  1  0  0
   -4.8378  -22.7012   46.2857 C   0  0  0  1  0  0
   -3.9600  -22.7148   47.3328 N   0  0  0  1  0  0
   -1.8203  -24.2215   51.7645 C   0  0  0  1  0  0
   -3.2324  -24.7010   52.1650 C   0  0  0  1  0  0
   -3.3401  -26.1930   52.2703 N   0  0  0  1  0  0
   -4.5806  -26.8427   52.3300 C   0  0  0  1  0  0
   -5.7893  -26.1384   52.1143 C   0  0  0  1  0  0
   -7.0331  -26.7897   52.1943 C   0  0  0  1  0  0
   -7.1014  -28.1694   52.4633 C   0  0  0  1  0  0
   -8.4349  -28.8920   52.5167 C   0  0  0  1  0  0
   -9.1795  -28.7654   53.8431 C   0  0  0  1  0  0
   -9.8177  -29.7053   54.2685 O   0  0  0  1  0  0
   -9.0910  -27.6201   54.5223 O   0  0  0  1  0  0
   -9.2212  -29.1043   51.2290 C   0  0  0  1  0  0
   -8.5216  -30.2701   51.8768 C   0  0  0  1  0  0
   -5.9078  -28.8851   52.6722 C   0  0  0  1  0  0
   -4.6685  -28.2271   52.6139 C   0  0  0  1  0  0
   -2.0415  -26.9388   52.3291 C   0  0  0  1  0  0
   -1.0667  -26.5815   51.1905 C   0  0  0  1  0  0
    1.8887  -22.9602   53.4855 H   0  0
    0.8637  -23.9253   54.5712 H   0  0
    0.1381  -23.0847   53.1778 H   0  0
    0.4229  -25.5397   52.7656 H   0  0
    2.3593  -25.9250   54.2057 H   0  0
    3.3843  -24.9599   53.1199 H   0  0
    2.6904  -26.4997   52.5519 H   0  0
    3.3783  -23.8235   51.4611 H   0  0
    3.7662  -23.3202   49.0653 H   0  0
    1.9652  -23.7522   47.4003 H   0  0
   -0.2490  -24.5647   48.1506 H   0  0
   -2.2380  -23.0004   49.2511 H   0  0
   -3.0627  -25.9756   47.1449 H   0  0
   -5.8046  -23.8520   44.7229 H   0  0
   -5.3388  -21.7725   46.0126 H   0  0
   -1.8848  -23.1952   51.4030 H   0  0
   -1.1816  -24.2258   52.6477 H   0  0
   -3.4974  -24.2596   53.1257 H   0  0
   -3.9509  -24.3470   51.4257 H   0  0
   -5.7555  -25.0739   51.8824 H   0  0
   -7.9515  -26.2215   52.0468 H   0  0
   -9.4183  -26.8782   53.8552 H   0  0
   -8.6733  -28.7368   50.3613 H   0  0
  -10.2949  -29.1236   51.4160 H   0  0
   -9.2210  -30.9147   52.4092 H   0  0
   -7.5992  -30.5270   51.3559 H   0  0
   -5.9454  -29.9544   52.8801 H   0  0
   -3.7547  -28.7943   52.7910 H   0  0
   -2.2476  -28.0085   52.2929 H   0  0
   -1.5591  -26.7297   53.2839 H   0  0
   -0.0488  -26.7595   51.5374 H   0  0
   -1.2394  -27.2650   50.3592 H   0  0
  1  2  1  0
  2  3  1  0
  2  4  1  0
  4  5  2  0
  4  9  1  0
  5  6  1  0
  6  7  2  0
  7  8  1  0
  8  9  2  0
  9 10  1  0
 10 11  1  0
 10 20  1  0
 10 36  1  0
 11 12  2  0
 11 13  1  0
 13 14  1  0
 14 15  2  0
 14 19  1  0
 15 16  1  0
 16 17  2  0
 17 18  1  0
 18 19  2  0
 20 21  1  0
 21 22  1  0
 22 23  1  0
 22 35  1  0
 23 24  2  0
 23 34  1  0
 24 25  1  0
 25 26  2  0
 26 27  1  0
 26 33  1  0
 27 28  1  0
 27 31  1  0
 27 32  1  0
 28 29  2  0
 28 30  1  0
 31 32  1  0
 33 34  2  0
 35 36  1  0
  1 37  1  0
  1 38  1  0
  1 39  1  0
  2 40  1  0
  3 41  1  0
  3 42  1  0
  3 43  1  0
  5 44  1  0
  6 45  1  0
  7 46  1  0
  8 47  1  0
 13 48  1  0
 15 49  1  0
 17 50  1  0
 18 51  1  0
 20 52  1  0
 20 53  1  0
 21 54  1  0
 21 55  1  0
 24 56  1  0
 25 57  1  0
 30 58  1  0
 31 59  1  0
 31 60  1  0
 32 61  1  0
 32 62  1  0
 33 63  1  0
 34 64  1  0
 35 65  1  0
 35 66  1  0
 36 67  1  0
 36 68  1  0
M  END
> <Name>
Molecule

> <AbsoluteEnergy>
75.0916

> <Clean Energy>
198.799

> <ConfNumber>
64

> <MOL_NUMBER>
8

> <RelativeEnergy>
13.5426

> <POSE_NUMBER>
25

> <LibDockScore>
127.1915

> <HotSpots>
-4.93,-23.52,47.59,A,26,15
-6.33,-26.32,51.98,A,57,24
-9.33,-29.92,51.19,A,52,32

$$$$
Molecule
  SciTegic05072616053D

 68 72  0  0  0  0            999 V2000
   -2.3176  -22.6897   47.6554 C   0  0  0  1  0  0
   -3.3709  -23.7686   47.9644 C   0  0  0  1  0  0
   -3.9005  -24.4230   46.6730 C   0  0  0  1  0  0
   -4.4735  -23.2330   48.8473 C   0  0  0  1  0  0
   -5.2594  -22.1861   48.3119 C   0  0  0  1  0  0
   -6.3255  -21.6353   49.0295 C   0  0  0  1  0  0
   -6.6215  -22.1193   50.3051 C   0  0  0  1  0  0
   -5.8449  -23.1417   50.8636 C   0  0  0  1  0  0
   -4.7488  -23.7202   50.1691 C   0  0  0  1  0  0
   -3.9147  -24.8200   50.8477 C   0  0  0  1  0  0
   -2.4750  -24.3238   51.0602 C   0  0  0  1  0  0
   -2.3163  -23.3692   51.7898 O   0  0  0  1  0  0
   -1.3835  -24.9384   50.4629 N   0  0  0  1  0  0
   -0.0431  -24.8185   50.8180 C   0  0  0  1  0  0
    0.9521  -25.1195   49.8519 C   0  0  0  1  0  0
    2.2809  -25.0245   50.1483 N   0  0  0  1  0  0
    2.6442  -24.6278   51.4003 C   0  0  0  1  0  0
    1.6676  -24.3261   52.3714 C   0  0  0  1  0  0
    0.3418  -24.4236   52.0737 N   0  0  0  1  0  0
   -4.3971  -25.1412   52.2978 C   0  0  0  1  0  0
   -3.5881  -26.2511   52.9869 C   0  0  0  1  0  0
   -3.6372  -27.5253   52.2171 N   0  0  0  1  0  0
   -3.7762  -28.7445   52.8736 C   0  0  0  1  0  0
   -4.3995  -29.8509   52.2523 C   0  0  0  1  0  0
   -4.5349  -31.0713   52.9330 C   0  0  0  1  0  0
   -4.0557  -31.2078   54.2483 C   0  0  0  1  0  0
   -4.2236  -32.5181   54.9820 C   0  0  0  1  0  0
   -5.0054  -32.3674   56.2823 C   0  0  0  1  0  0
   -4.4295  -32.0115   57.2851 O   0  0  0  1  0  0
   -6.3131  -32.6327   56.2829 O   0  0  0  1  0  0
   -3.1173  -33.5593   54.8955 C   0  0  0  1  0  0
   -4.4247  -33.7935   54.1797 C   0  0  0  1  0  0
   -3.4283  -30.1166   54.8744 C   0  0  0  1  0  0
   -3.2897  -28.8969   54.1920 C   0  0  0  1  0  0
   -3.4925  -27.4401   50.7313 C   0  0  0  1  0  0
   -4.1241  -26.1765   50.0945 C   0  0  0  1  0  0
   -2.7730  -21.9290   47.0214 H   0  0
   -1.4914  -23.1530   47.1161 H   0  0
   -1.9548  -22.2384   48.5789 H   0  0
   -2.8831  -24.5598   48.5337 H   0  0
   -3.0625  -24.8733   46.1410 H   0  0
   -4.3440  -23.6493   46.0463 H   0  0
   -4.6444  -25.1834   46.9108 H   0  0
   -5.0291  -21.8005   47.3188 H   0  0
   -6.9220  -20.8328   48.5956 H   0  0
   -7.4572  -21.7012   50.8663 H   0  0
   -6.0888  -23.5050   51.8619 H   0  0
   -1.5972  -25.5789   49.6329 H   0  0
    0.6490  -25.4329   48.8529 H   0  0
    3.7009  -24.5428   51.6537 H   0  0
    1.9759  -24.0122   53.3687 H   0  0
   -4.3334  -24.2347   52.8997 H   0  0
   -5.4449  -25.4397   52.2640 H   0  0
   -2.5504  -25.9315   53.0823 H   0  0
   -3.9906  -26.4219   53.9854 H   0  0
   -4.7787  -29.7555   51.2348 H   0  0
   -5.0137  -31.9172   52.4397 H   0  0
   -6.3933  -33.6178   55.9284 H   0  0
   -3.0488  -34.1470   55.8109 H   0  0
   -2.3310  -33.2502   54.2068 H   0  0
   -4.3354  -33.6110   53.1088 H   0  0
   -5.0536  -34.5062   54.7132 H   0  0
   -3.0488  -30.2173   55.8912 H   0  0
   -2.8007  -28.0570   54.6854 H   0  0
   -3.9492  -28.3229   50.2840 H   0  0
   -2.4317  -27.4649   50.4819 H   0  0
   -3.7330  -26.0722   49.0825 H   0  0
   -5.1952  -26.3473   49.9864 H   0  0
  1  2  1  0
  2  3  1  0
  2  4  1  0
  4  5  2  0
  4  9  1  0
  5  6  1  0
  6  7  2  0
  7  8  1  0
  8  9  2  0
  9 10  1  0
 10 11  1  0
 10 20  1  0
 10 36  1  0
 11 12  2  0
 11 13  1  0
 13 14  1  0
 14 15  2  0
 14 19  1  0
 15 16  1  0
 16 17  2  0
 17 18  1  0
 18 19  2  0
 20 21  1  0
 21 22  1  0
 22 23  1  0
 22 35  1  0
 23 24  2  0
 23 34  1  0
 24 25  1  0
 25 26  2  0
 26 27  1  0
 26 33  1  0
 27 28  1  0
 27 31  1  0
 27 32  1  0
 28 29  2  0
 28 30  1  0
 31 32  1  0
 33 34  2  0
 35 36  1  0
  1 37  1  0
  1 38  1  0
  1 39  1  0
  2 40  1  0
  3 41  1  0
  3 42  1  0
  3 43  1  0
  5 44  1  0
  6 45  1  0
  7 46  1  0
  8 47  1  0
 13 48  1  0
 15 49  1  0
 17 50  1  0
 18 51  1  0
 20 52  1  0
 20 53  1  0
 21 54  1  0
 21 55  1  0
 24 56  1  0
 25 57  1  0
 30 58  1  0
 31 59  1  0
 31 60  1  0
 32 61  1  0
 32 62  1  0
 33 63  1  0
 34 64  1  0
 35 65  1  0
 35 66  1  0
 36 67  1  0
 36 68  1  0
M  END
> <Name>
Molecule

> <AbsoluteEnergy>
66.5613

> <Clean Energy>
198.799

> <ConfNumber>
12

> <MOL_NUMBER>
8

> <RelativeEnergy>
5.01228

> <POSE_NUMBER>
26

> <LibDockScore>
126.8334

> <HotSpots>
-6.13,-22.12,49.98,A,41,7
2.47,-25.32,48.78,P,32,16
-4.33,-31.92,57.78,P,73,29

$$$$
Molecule
  SciTegic05072616053D

 68 72  0  0  0  0            999 V2000
   -1.8668  -29.2569   49.8751 C   0  0  0  1  0  0
   -2.6792  -27.9557   50.0014 C   0  0  0  1  0  0
   -2.3794  -27.0025   48.8206 C   0  0  0  1  0  0
   -2.4954  -27.3242   51.3635 C   0  0  0  1  0  0
   -1.2064  -26.7941   51.6188 C   0  0  0  1  0  0
   -0.9000  -26.1351   52.8131 C   0  0  0  1  0  0
   -1.8806  -25.9948   53.7928 C   0  0  0  1  0  0
   -3.1547  -26.5287   53.5786 C   0  0  0  1  0  0
   -3.5022  -27.2298   52.3925 C   0  0  0  1  0  0
   -4.9359  -27.7961   52.4029 C   0  0  0  1  0  0
   -5.0095  -28.9042   53.4746 C   0  0  0  1  0  0
   -5.7026  -28.7197   54.4496 O   0  0  0  1  0  0
   -4.3092  -30.0905   53.3135 N   0  0  0  1  0  0
   -4.4108  -31.2525   54.0798 C   0  0  0  1  0  0
   -5.1901  -31.3575   55.2676 C   0  0  0  1  0  0
   -5.2799  -32.5272   55.9597 N   0  0  0  1  0  0
   -4.6005  -33.6134   55.5029 C   0  0  0  1  0  0
   -3.8213  -33.5303   54.3312 C   0  0  0  1  0  0
   -3.7335  -32.3606   53.6368 N   0  0  0  1  0  0
   -5.9338  -26.6429   52.7801 C   0  0  0  1  0  0
   -7.4390  -26.9528   52.5361 C   0  0  0  1  0  0
   -7.6889  -28.4199   52.4033 N   0  0  0  1  0  0
   -8.4925  -29.1321   53.2973 C   0  0  0  1  0  0
   -9.1110  -30.3476   52.9164 C   0  0  0  1  0  0
   -9.8286  -31.1172   53.8447 C   0  0  0  1  0  0
   -9.9562  -30.6811   55.1734 C   0  0  0  1  0  0
  -10.6601  -31.5462   56.1908 C   0  0  0  1  0  0
  -12.0644  -31.9681   55.7734 C   0  0  0  1  0  0
  -12.2008  -32.6197   54.7642 O   0  0  0  1  0  0
  -13.1161  -31.6240   56.5191 O   0  0  0  1  0  0
  -10.3829  -31.2973   57.6652 C   0  0  0  1  0  0
   -9.8325  -32.5337   57.0007 C   0  0  0  1  0  0
   -9.4114  -29.4438   55.5503 C   0  0  0  1  0  0
   -8.6920  -28.6735   54.6207 C   0  0  0  1  0  0
   -6.9247  -29.0567   51.2841 C   0  0  0  1  0  0
   -5.5479  -28.3733   51.0847 C   0  0  0  1  0  0
   -0.8050  -29.0108   49.8663 H   0  0
   -2.1276  -29.7464   48.9367 H   0  0
   -2.0869  -29.9193   50.7123 H   0  0
   -3.7408  -28.1928   49.9320 H   0  0
   -2.6375  -27.5038   47.8877 H   0  0
   -1.3149  -26.7682   48.8173 H   0  0
   -2.9604  -26.0858   48.9219 H   0  0
   -0.4303  -26.9034   50.8612 H   0  0
    0.1000  -25.7335   52.9768 H   0  0
   -1.6554  -25.4712   54.7219 H   0  0
   -3.9119  -26.4021   54.3524 H   0  0
   -3.6078  -30.1181   52.5059 H   0  0
   -5.7271  -30.4814   55.6311 H   0  0
   -4.6591  -34.5559   56.0474 H   0  0
   -3.2838  -34.4099   53.9770 H   0  0
   -5.6674  -25.7516   52.2121 H   0  0
   -5.7973  -26.3954   53.8328 H   0  0
   -7.7655  -26.4519   51.6247 H   0  0
   -8.0240  -26.5657   53.3704 H   0  0
   -9.0283  -30.6911   51.8852 H   0  0
  -10.2880  -32.0555   53.5338 H   0  0
  -13.0608  -30.5777   56.5872 H   0  0
  -11.2539  -31.5244   58.2799 H   0  0
   -9.6131  -30.5382   57.8043 H   0  0
   -8.7686  -32.4352   56.7849 H   0  0
  -10.4103  -33.4211   57.2592 H   0  0
   -9.5468  -29.0787   56.5684 H   0  0
   -8.2823  -27.7099   54.9234 H   0  0
   -7.5017  -28.9759   50.3629 H   0  0
   -6.7719  -30.1122   51.5090 H   0  0
   -4.8537  -29.0987   50.6605 H   0  0
   -5.6583  -27.5638   50.3631 H   0  0
  1  2  1  0
  2  3  1  0
  2  4  1  0
  4  5  2  0
  4  9  1  0
  5  6  1  0
  6  7  2  0
  7  8  1  0
  8  9  2  0
  9 10  1  0
 10 11  1  0
 10 20  1  0
 10 36  1  0
 11 12  2  0
 11 13  1  0
 13 14  1  0
 14 15  2  0
 14 19  1  0
 15 16  1  0
 16 17  2  0
 17 18  1  0
 18 19  2  0
 20 21  1  0
 21 22  1  0
 22 23  1  0
 22 35  1  0
 23 24  2  0
 23 34  1  0
 24 25  1  0
 25 26  2  0
 26 27  1  0
 26 33  1  0
 27 28  1  0
 27 31  1  0
 27 32  1  0
 28 29  2  0
 28 30  1  0
 31 32  1  0
 33 34  2  0
 35 36  1  0
  1 37  1  0
  1 38  1  0
  1 39  1  0
  2 40  1  0
  3 41  1  0
  3 42  1  0
  3 43  1  0
  5 44  1  0
  6 45  1  0
  7 46  1  0
  8 47  1  0
 13 48  1  0
 15 49  1  0
 17 50  1  0
 18 51  1  0
 20 52  1  0
 20 53  1  0
 21 54  1  0
 21 55  1  0
 24 56  1  0
 25 57  1  0
 30 58  1  0
 31 59  1  0
 31 60  1  0
 32 61  1  0
 32 62  1  0
 33 63  1  0
 34 64  1  0
 35 65  1  0
 35 66  1  0
 36 67  1  0
 36 68  1  0
M  END
> <Name>
Molecule

> <AbsoluteEnergy>
76.0568

> <Clean Energy>
198.799

> <ConfNumber>
72

> <MOL_NUMBER>
8

> <RelativeEnergy>
14.5078

> <POSE_NUMBER>
27

> <LibDockScore>
126.0037

> <HotSpots>
-0.33,-25.52,53.19,A,64,6
-3.93,-33.72,53.78,A,66,17
-8.73,-28.12,54.38,A,70,34

$$$$
Molecule
  SciTegic05072616053D

 68 72  0  0  0  0            999 V2000
   -4.3256  -21.6019   50.7922 C   0  0  0  1  0  0
   -4.9833  -22.9539   50.4546 C   0  0  0  1  0  0
   -6.5208  -22.8404   50.4438 C   0  0  0  1  0  0
   -4.4479  -23.5350   49.1633 C   0  0  0  1  0  0
   -4.7234  -22.8066   47.9848 C   0  0  0  1  0  0
   -4.2969  -23.2596   46.7329 C   0  0  0  1  0  0
   -3.5810  -24.4555   46.6381 C   0  0  0  1  0  0
   -3.2844  -25.1873   47.7946 C   0  0  0  1  0  0
   -3.6980  -24.7545   49.0810 C   0  0  0  1  0  0
   -3.3358  -25.5847   50.3197 C   0  0  0  1  0  0
   -2.1657  -24.9653   51.1049 C   0  0  0  1  0  0
   -2.2759  -24.8117   52.3022 O   0  0  0  1  0  0
   -0.9943  -24.6051   50.4506 N   0  0  0  1  0  0
    0.2929  -24.6189   50.9795 C   0  0  0  1  0  0
    1.3714  -24.1510   50.1866 C   0  0  0  1  0  0
    2.6523  -24.1599   50.6569 N   0  0  0  1  0  0
    2.8852  -24.6272   51.9162 C   0  0  0  1  0  0
    1.8250  -25.0949   52.7167 C   0  0  0  1  0  0
    0.5469  -25.0860   52.2447 N   0  0  0  1  0  0
   -4.6183  -25.7060   51.2378 C   0  0  0  1  0  0
   -5.5694  -26.8639   50.8904 C   0  0  0  1  0  0
   -4.7471  -28.0880   50.9124 N   0  0  0  1  0  0
   -4.7222  -28.9823   51.9784 C   0  0  0  1  0  0
   -3.5993  -29.8201   52.1591 C   0  0  0  1  0  0
   -3.4895  -30.6394   53.2895 C   0  0  0  1  0  0
   -4.5073  -30.6474   54.2571 C   0  0  0  1  0  0
   -4.3359  -31.4755   55.5095 C   0  0  0  1  0  0
   -3.7287  -30.6816   56.6646 C   0  0  0  1  0  0
   -2.7180  -30.0402   56.4782 O   0  0  0  1  0  0
   -4.3231  -30.7102   57.8562 O   0  0  0  1  0  0
   -3.9373  -32.9358   55.3700 C   0  0  0  1  0  0
   -5.3369  -32.5814   55.8103 C   0  0  0  1  0  0
   -5.6639  -29.8732   54.0557 C   0  0  0  1  0  0
   -5.7755  -29.0534   52.9188 C   0  0  0  1  0  0
   -3.8192  -28.1416   49.7674 C   0  0  0  1  0  0
   -2.7716  -27.0304   49.9877 C   0  0  0  1  0  0
   -4.6742  -21.2785   51.7730 H   0  0
   -4.6317  -20.8681   50.0466 H   0  0
   -3.2400  -21.6997   50.7956 H   0  0
   -4.7157  -23.6541   51.2459 H   0  0
   -6.8116  -22.0979   49.7007 H   0  0
   -6.8540  -22.5084   51.4271 H   0  0
   -6.9696  -23.8043   50.2036 H   0  0
   -5.2801  -21.8719   48.0529 H   0  0
   -4.5217  -22.6829   45.8357 H   0  0
   -3.2534  -24.8189   45.6641 H   0  0
   -2.7200  -26.1154   47.7040 H   0  0
   -1.0919  -24.2837   49.4347 H   0  0
    1.1734  -23.7770   49.1821 H   0  0
    3.9024  -24.6390   52.3076 H   0  0
    2.0284  -25.4666   53.7210 H   0  0
   -5.1766  -24.7714   51.1838 H   0  0
   -4.2966  -25.8207   52.2729 H   0  0
   -5.9877  -26.7154   49.8949 H   0  0
   -6.3585  -26.9329   51.6392 H   0  0
   -2.8083  -29.8290   51.4092 H   0  0
   -2.6117  -31.2726   53.4187 H   0  0
   -4.3761  -31.7279   58.1090 H   0  0
   -3.3232  -33.2650   56.2082 H   0  0
   -3.9103  -33.2447   54.3250 H   0  0
   -6.0560  -32.7012   55.0000 H   0  0
   -5.4684  -32.7199   56.8834 H   0  0
   -6.4755  -29.9087   54.7824 H   0  0
   -6.6814  -28.4680   52.7612 H   0  0
   -3.3252  -29.1127   49.7363 H   0  0
   -4.3623  -27.9571   48.8405 H   0  0
   -2.1505  -26.9625   49.0946 H   0  0
   -2.1098  -27.3386   50.7971 H   0  0
  1  2  1  0
  2  3  1  0
  2  4  1  0
  4  5  2  0
  4  9  1  0
  5  6  1  0
  6  7  2  0
  7  8  1  0
  8  9  2  0
  9 10  1  0
 10 11  1  0
 10 20  1  0
 10 36  1  0
 11 12  2  0
 11 13  1  0
 13 14  1  0
 14 15  2  0
 14 19  1  0
 15 16  1  0
 16 17  2  0
 17 18  1  0
 18 19  2  0
 20 21  1  0
 21 22  1  0
 22 23  1  0
 22 35  1  0
 23 24  2  0
 23 34  1  0
 24 25  1  0
 25 26  2  0
 26 27  1  0
 26 33  1  0
 27 28  1  0
 27 31  1  0
 27 32  1  0
 28 29  2  0
 28 30  1  0
 31 32  1  0
 33 34  2  0
 35 36  1  0
  1 37  1  0
  1 38  1  0
  1 39  1  0
  2 40  1  0
  3 41  1  0
  3 42  1  0
  3 43  1  0
  5 44  1  0
  6 45  1  0
  7 46  1  0
  8 47  1  0
 13 48  1  0
 15 49  1  0
 17 50  1  0
 18 51  1  0
 20 52  1  0
 20 53  1  0
 21 54  1  0
 21 55  1  0
 24 56  1  0
 25 57  1  0
 30 58  1  0
 31 59  1  0
 31 60  1  0
 32 61  1  0
 32 62  1  0
 33 63  1  0
 34 64  1  0
 35 65  1  0
 35 66  1  0
 36 67  1  0
 36 68  1  0
M  END
> <Name>
Molecule

> <AbsoluteEnergy>
68.8963

> <Clean Energy>
198.799

> <ConfNumber>
21

> <MOL_NUMBER>
8

> <RelativeEnergy>
7.34735

> <POSE_NUMBER>
28

> <LibDockScore>
125.9381

> <HotSpots>
-4.53,-24.52,46.19,A,17,7
3.07,-24.52,50.38,A,43,17
-4.13,-30.52,57.38,P,71,30

$$$$
Molecule
  SciTegic05072616053D

 68 72  0  0  0  0            999 V2000
    0.9692  -26.1201   46.9440 C   0  0  0  1  0  0
    0.2424  -24.9653   47.6581 C   0  0  0  1  0  0
    0.0218  -23.7751   46.7035 C   0  0  0  1  0  0
    0.9523  -24.5513   48.9275 C   0  0  0  1  0  0
    2.3064  -24.1628   48.8089 C   0  0  0  1  0  0
    3.0416  -23.7447   49.9226 C   0  0  0  1  0  0
    2.4338  -23.7094   51.1806 C   0  0  0  1  0  0
    1.0935  -24.0963   51.3230 C   0  0  0  1  0  0
    0.3228  -24.5323   50.2150 C   0  0  0  1  0  0
   -1.1447  -24.9573   50.4072 C   0  0  0  1  0  0
   -2.0677  -24.3630   49.3216 C   0  0  0  1  0  0
   -3.0288  -25.0213   48.9855 O   0  0  0  1  0  0
   -1.8187  -23.1204   48.7283 N   0  0  0  1  0  0
   -2.5695  -22.5006   47.7325 C   0  0  0  1  0  0
   -2.0352  -21.3739   47.0445 C   0  0  0  1  0  0
   -2.7405  -20.7455   46.0585 N   0  0  0  1  0  0
   -3.9782  -21.2183   45.7364 C   0  0  0  1  0  0
   -4.5230  -22.3285   46.4134 C   0  0  0  1  0  0
   -3.8194  -22.9548   47.3986 N   0  0  0  1  0  0
   -1.2217  -26.5369   50.4537 C   0  0  0  1  0  0
   -1.9268  -27.1635   51.6821 C   0  0  0  1  0  0
   -3.2268  -26.4983   51.9388 N   0  0  0  1  0  0
   -4.4060  -27.2205   52.0756 C   0  0  0  1  0  0
   -5.6419  -26.5479   51.9770 C   0  0  0  1  0  0
   -6.8497  -27.2506   52.1063 C   0  0  0  1  0  0
   -6.8512  -28.6360   52.3585 C   0  0  0  1  0  0
   -8.1731  -29.3674   52.5265 C   0  0  0  1  0  0
   -8.8869  -29.0434   53.8421 C   0  0  0  1  0  0
   -9.5234  -29.9043   54.4135 O   0  0  0  1  0  0
   -8.7917  -27.7993   54.3199 O   0  0  0  1  0  0
   -8.3708  -30.7393   51.8926 C   0  0  0  1  0  0
   -9.0507  -29.5317   51.2951 C   0  0  0  1  0  0
   -5.6233  -29.3182   52.4555 C   0  0  0  1  0  0
   -4.4073  -28.6202   52.3065 C   0  0  0  1  0  0
   -3.2014  -25.0089   52.0155 C   0  0  0  1  0  0
   -1.7858  -24.4381   51.7394 C   0  0  0  1  0  0
    1.9323  -25.7594   46.5828 H   0  0
    0.3677  -26.4416   46.0937 H   0  0
    1.1179  -26.9535   47.6307 H   0  0
   -0.7402  -25.3296   47.9578 H   0  0
   -0.5739  -24.1110   45.8547 H   0  0
    0.9907  -23.4287   46.3438 H   0  0
   -0.4930  -22.9665   47.2224 H   0  0
    2.7866  -24.1897   47.8307 H   0  0
    4.0843  -23.4476   49.8100 H   0  0
    3.0017  -23.3811   52.0511 H   0  0
    0.6323  -24.0611   52.3100 H   0  0
   -0.9582  -22.5889   49.0775 H   0  0
   -1.0441  -21.0061   47.3101 H   0  0
   -4.5524  -20.7329   44.9473 H   0  0
   -5.5163  -22.6894   46.1464 H   0  0
   -0.2080  -26.9340   50.4016 H   0  0
   -1.7293  -26.8838   49.5537 H   0  0
   -1.2888  -27.0552   52.5592 H   0  0
   -2.0963  -28.2244   51.4981 H   0  0
   -5.6590  -25.4727   51.7988 H   0  0
   -7.7963  -26.7187   52.0105 H   0  0
   -9.1507  -27.1764   53.5547 H   0  0
   -9.0667  -31.3491   52.4689 H   0  0
   -7.4990  -31.0394   51.3112 H   0  0
   -8.5431  -29.1892   50.3934 H   0  0
  -10.1095  -29.4978   51.5517 H   0  0
   -5.6127  -30.3912   52.6467 H   0  0
   -3.4622  -29.1595   52.3691 H   0  0
   -3.5246  -24.6964   53.0085 H   0  0
   -3.8992  -24.6021   51.2836 H   0  0
   -1.8468  -23.3505   51.7020 H   0  0
   -1.1323  -24.7013   52.5712 H   0  0
  1  2  1  0
  2  3  1  0
  2  4  1  0
  4  5  2  0
  4  9  1  0
  5  6  1  0
  6  7  2  0
  7  8  1  0
  8  9  2  0
  9 10  1  0
 10 11  1  0
 10 20  1  0
 10 36  1  0
 11 12  2  0
 11 13  1  0
 13 14  1  0
 14 15  2  0
 14 19  1  0
 15 16  1  0
 16 17  2  0
 17 18  1  0
 18 19  2  0
 20 21  1  0
 21 22  1  0
 22 23  1  0
 22 35  1  0
 23 24  2  0
 23 34  1  0
 24 25  1  0
 25 26  2  0
 26 27  1  0
 26 33  1  0
 27 28  1  0
 27 31  1  0
 27 32  1  0
 28 29  2  0
 28 30  1  0
 31 32  1  0
 33 34  2  0
 35 36  1  0
  1 37  1  0
  1 38  1  0
  1 39  1  0
  2 40  1  0
  3 41  1  0
  3 42  1  0
  3 43  1  0
  5 44  1  0
  6 45  1  0
  7 46  1  0
  8 47  1  0
 13 48  1  0
 15 49  1  0
 17 50  1  0
 18 51  1  0
 20 52  1  0
 20 53  1  0
 21 54  1  0
 21 55  1  0
 24 56  1  0
 25 57  1  0
 30 58  1  0
 31 59  1  0
 31 60  1  0
 32 61  1  0
 32 62  1  0
 33 63  1  0
 34 64  1  0
 35 65  1  0
 35 66  1  0
 36 67  1  0
 36 68  1  0
M  END
> <Name>
Molecule

> <AbsoluteEnergy>
70.7746

> <Clean Energy>
198.799

> <ConfNumber>
29

> <MOL_NUMBER>
8

> <RelativeEnergy>
9.22559

> <POSE_NUMBER>
29

> <LibDockScore>
124.9216

> <HotSpots>
2.67,-23.92,48.98,A,32,6
-5.13,-22.92,46.19,A,18,18
-8.53,-31.32,51.19,A,51,32

$$$$
Molecule
  SciTegic05072616053D

 68 72  0  0  0  0            999 V2000
   -5.0077  -23.2548   51.0524 C   0  0  0  1  0  0
   -4.4161  -24.5957   50.5660 C   0  0  0  1  0  0
   -4.1503  -24.5643   49.0480 C   0  0  0  1  0  0
   -3.1870  -25.0079   51.3460 C   0  0  0  1  0  0
   -2.0454  -24.1935   51.1752 C   0  0  0  1  0  0
   -0.8812  -24.4054   51.9184 C   0  0  0  1  0  0
   -0.8410  -25.4367   52.8571 C   0  0  0  1  0  0
   -1.9487  -26.2773   53.0187 C   0  0  0  1  0  0
   -3.1281  -26.1351   52.2380 C   0  0  0  1  0  0
   -4.2726  -27.1604   52.4092 C   0  0  0  1  0  0
   -3.8288  -28.4453   53.1681 C   0  0  0  1  0  0
   -2.7679  -28.9472   52.8592 O   0  0  0  1  0  0
   -4.6157  -29.0453   54.1491 N   0  0  0  1  0  0
   -4.5501  -30.3510   54.6231 C   0  0  0  1  0  0
   -3.8316  -31.3947   53.9785 C   0  0  0  1  0  0
   -3.8348  -32.6660   54.4803 N   0  0  0  1  0  0
   -4.5311  -32.9198   55.6270 C   0  0  0  1  0  0
   -5.2299  -31.8882   56.2853 C   0  0  0  1  0  0
   -5.2272  -30.6267   55.7825 N   0  0  0  1  0  0
   -4.7607  -27.7985   51.0598 C   0  0  0  1  0  0
   -5.9731  -28.7512   51.2388 C   0  0  0  1  0  0
   -6.9919  -28.2018   52.1921 N   0  0  0  1  0  0
   -7.9659  -28.9929   52.7982 C   0  0  0  1  0  0
   -8.6774  -28.5337   53.9313 C   0  0  0  1  0  0
   -9.5738  -29.3788   54.6107 C   0  0  0  1  0  0
   -9.7721  -30.6981   54.1646 C   0  0  0  1  0  0
  -10.6233  -31.6754   54.9462 C   0  0  0  1  0  0
   -9.9596  -32.0670   56.2764 C   0  0  0  1  0  0
   -8.7477  -32.0924   56.3360 O   0  0  0  1  0  0
  -10.6945  -32.3810   57.3448 O   0  0  0  1  0  0
  -12.1408  -31.6255   54.7689 C   0  0  0  1  0  0
  -11.3557  -32.7889   54.2116 C   0  0  0  1  0  0
   -9.1403  -31.1297   52.9882 C   0  0  0  1  0  0
   -8.2484  -30.2888   52.3116 C   0  0  0  1  0  0
   -6.8707  -26.7518   52.5129 C   0  0  0  1  0  0
   -5.4756  -26.4104   53.0889 C   0  0  0  1  0  0
   -5.9422  -23.0697   50.5227 H   0  0
   -4.3034  -22.4554   50.8224 H   0  0
   -5.1903  -23.2916   52.1264 H   0  0
   -5.1657  -25.3634   50.7582 H   0  0
   -3.4510  -23.7571   48.8298 H   0  0
   -5.0899  -24.3715   48.5302 H   0  0
   -3.7333  -25.5162   48.7192 H   0  0
   -2.0733  -23.3822   50.4478 H   0  0
   -0.0097  -23.7688   51.7656 H   0  0
    0.0518  -25.5877   53.4639 H   0  0
   -1.9054  -27.0674   53.7683 H   0  0
   -5.3644  -28.4233   54.5935 H   0  0
   -3.2695  -31.1777   53.0701 H   0  0
   -4.5466  -33.9296   56.0370 H   0  0
   -5.7759  -32.1041   57.2036 H   0  0
   -3.9375  -28.3552   50.6119 H   0  0
   -5.0371  -27.0008   50.3703 H   0  0
   -6.4449  -28.9140   50.2698 H   0  0
   -5.6204  -29.7128   51.6117 H   0  0
   -8.5293  -27.5125   54.2824 H   0  0
  -10.1147  -29.0113   55.4828 H   0  0
  -11.3154  -33.1585   57.0094 H   0  0
  -12.4279  -30.9221   53.9873 H   0  0
  -12.6581  -31.8930   55.6903 H   0  0
  -11.4585  -33.6783   54.8333 H   0  0
  -11.2271  -32.7075   53.1323 H   0  0
   -9.3454  -32.1267   52.5984 H   0  0
   -7.7663  -30.6381   51.3986 H   0  0
   -7.6345  -26.4807   53.2417 H   0  0
   -7.0355  -26.1699   51.6061 H   0  0
   -5.3153  -25.3362   52.9970 H   0  0
   -5.4736  -26.6409   54.1543 H   0  0
  1  2  1  0
  2  3  1  0
  2  4  1  0
  4  5  2  0
  4  9  1  0
  5  6  1  0
  6  7  2  0
  7  8  1  0
  8  9  2  0
  9 10  1  0
 10 11  1  0
 10 20  1  0
 10 36  1  0
 11 12  2  0
 11 13  1  0
 13 14  1  0
 14 15  2  0
 14 19  1  0
 15 16  1  0
 16 17  2  0
 17 18  1  0
 18 19  2  0
 20 21  1  0
 21 22  1  0
 22 23  1  0
 22 35  1  0
 23 24  2  0
 23 34  1  0
 24 25  1  0
 25 26  2  0
 26 27  1  0
 26 33  1  0
 27 28  1  0
 27 31  1  0
 27 32  1  0
 28 29  2  0
 28 30  1  0
 31 32  1  0
 33 34  2  0
 35 36  1  0
  1 37  1  0
  1 38  1  0
  1 39  1  0
  2 40  1  0
  3 41  1  0
  3 42  1  0
  3 43  1  0
  5 44  1  0
  6 45  1  0
  7 46  1  0
  8 47  1  0
 13 48  1  0
 15 49  1  0
 17 50  1  0
 18 51  1  0
 20 52  1  0
 20 53  1  0
 21 54  1  0
 21 55  1  0
 24 56  1  0
 25 57  1  0
 30 58  1  0
 31 59  1  0
 31 60  1  0
 32 61  1  0
 32 62  1  0
 33 63  1  0
 34 64  1  0
 35 65  1  0
 35 66  1  0
 36 67  1  0
 36 68  1  0
M  END
> <Name>
Molecule

> <AbsoluteEnergy>
79.1282

> <Clean Energy>
198.799

> <ConfNumber>
96

> <MOL_NUMBER>
8

> <RelativeEnergy>
17.5792

> <POSE_NUMBER>
30

> <LibDockScore>
124.0867

> <HotSpots>
-5.33,-24.12,49.78,A,36,3
-3.33,-32.52,54.19,P,48,16
-12.93,-31.72,54.98,A,73,31

$$$$
Molecule
  SciTegic05072616053D

 68 72  0  0  0  0            999 V2000
    2.0084  -22.8225   50.6593 C   0  0  0  1  0  0
    1.1034  -24.0655   50.7457 C   0  0  0  1  0  0
    1.6272  -25.0443   51.8251 C   0  0  0  1  0  0
    0.9303  -24.7092   49.3840 C   0  0  0  1  0  0
    2.1468  -25.1439   48.8019 C   0  0  0  1  0  0
    2.2057  -25.6742   47.5114 C   0  0  0  1  0  0
    1.0391  -25.7741   46.7593 C   0  0  0  1  0  0
   -0.1815  -25.3777   47.3171 C   0  0  0  1  0  0
   -0.3016  -24.8875   48.6475 C   0  0  0  1  0  0
   -1.7605  -24.5849   49.0817 C   0  0  0  1  0  0
   -2.2174  -23.2939   48.3446 C   0  0  0  1  0  0
   -1.4902  -22.3242   48.3291 O   0  0  0  1  0  0
   -3.4453  -23.2290   47.6972 N   0  0  0  1  0  0
   -3.9025  -22.3216   46.7334 C   0  0  0  1  0  0
   -3.1179  -21.2974   46.1184 C   0  0  0  1  0  0
   -3.6519  -20.4645   45.1700 N   0  0  0  1  0  0
   -4.9576  -20.6269   44.8124 C   0  0  0  1  0  0
   -5.7445  -21.6319   45.4091 C   0  0  0  1  0  0
   -5.2142  -22.4583   46.3539 N   0  0  0  1  0  0
   -2.0729  -24.4305   50.6014 C   0  0  0  1  0  0
   -1.7391  -25.6606   51.4952 C   0  0  0  1  0  0
   -2.2913  -26.9468   50.9799 N   0  0  0  1  0  0
   -2.7248  -27.9445   51.8621 C   0  0  0  1  0  0
   -3.3568  -29.1174   51.3855 C   0  0  0  1  0  0
   -3.8304  -30.0987   52.2790 C   0  0  0  1  0  0
   -3.6884  -29.9267   53.6692 C   0  0  0  1  0  0
   -4.2699  -30.9471   54.6375 C   0  0  0  1  0  0
   -5.7506  -30.6921   54.9659 C   0  0  0  1  0  0
   -6.2850  -29.7278   54.4604 O   0  0  0  1  0  0
   -6.4326  -31.5117   55.7854 O   0  0  0  1  0  0
   -3.7728  -32.3838   54.5658 C   0  0  0  1  0  0
   -3.3681  -31.5091   55.7286 C   0  0  0  1  0  0
   -3.0226  -28.7881   54.1552 C   0  0  0  1  0  0
   -2.5486  -27.8052   53.2632 C   0  0  0  1  0  0
   -2.3187  -27.1201   49.4929 C   0  0  0  1  0  0
   -2.6783  -25.8190   48.7349 C   0  0  0  1  0  0
    3.0208  -23.1364   50.4052 H   0  0
    2.0205  -22.3231   51.6281 H   0  0
    1.6319  -22.1399   49.8974 H   0  0
    0.1062  -23.7589   51.0616 H   0  0
    1.6408  -24.5365   52.7895 H   0  0
    2.6411  -25.3498   51.5666 H   0  0
    0.9806  -25.9202   51.8787 H   0  0
    3.0669  -25.0617   49.3804 H   0  0
    3.1572  -26.0070   47.0968 H   0  0
    1.0760  -26.1594   45.7403 H   0  0
   -1.0807  -25.4476   46.7050 H   0  0
   -4.1472  -23.9865   47.9773 H   0  0
   -2.0744  -21.1764   46.4093 H   0  0
   -5.3965  -19.9736   44.0583 H   0  0
   -6.7867  -21.7494   45.1123 H   0  0
   -1.5244  -23.5686   50.9815 H   0  0
   -3.1316  -24.1980   50.7161 H   0  0
   -0.6562  -25.7526   51.5789 H   0  0
   -2.1320  -25.4872   52.4970 H   0  0
   -3.4790  -29.2639   50.3123 H   0  0
   -4.3101  -30.9973   51.8912 H   0  0
   -5.8643  -31.5207   56.6683 H   0  0
   -2.9640  -32.4917   53.8431 H   0  0
   -4.5532  -33.0910   54.8468 H   0  0
   -3.9328  -31.7504   56.6291 H   0  0
   -2.3443  -31.1498   55.6247 H   0  0
   -2.8721  -28.6647   55.2277 H   0  0
   -2.0391  -26.9250   53.6554 H   0  0
   -3.0476  -27.8899   49.2394 H   0  0
   -1.3399  -27.4648   49.1593 H   0  0
   -2.6188  -26.0115   47.6637 H   0  0
   -3.7133  -25.5599   48.9577 H   0  0
  1  2  1  0
  2  3  1  0
  2  4  1  0
  4  5  2  0
  4  9  1  0
  5  6  1  0
  6  7  2  0
  7  8  1  0
  8  9  2  0
  9 10  1  0
 10 11  1  0
 10 20  1  0
 10 36  1  0
 11 12  2  0
 11 13  1  0
 13 14  1  0
 14 15  2  0
 14 19  1  0
 15 16  1  0
 16 17  2  0
 17 18  1  0
 18 19  2  0
 20 21  1  0
 21 22  1  0
 22 23  1  0
 22 35  1  0
 23 24  2  0
 23 34  1  0
 24 25  1  0
 25 26  2  0
 26 27  1  0
 26 33  1  0
 27 28  1  0
 27 31  1  0
 27 32  1  0
 28 29  2  0
 28 30  1  0
 31 32  1  0
 33 34  2  0
 35 36  1  0
  1 37  1  0
  1 38  1  0
  1 39  1  0
  2 40  1  0
  3 41  1  0
  3 42  1  0
  3 43  1  0
  5 44  1  0
  6 45  1  0
  7 46  1  0
  8 47  1  0
 13 48  1  0
 15 49  1  0
 17 50  1  0
 18 51  1  0
 20 52  1  0
 20 53  1  0
 21 54  1  0
 21 55  1  0
 24 56  1  0
 25 57  1  0
 30 58  1  0
 31 59  1  0
 31 60  1  0
 32 61  1  0
 32 62  1  0
 33 63  1  0
 34 64  1  0
 35 65  1  0
 35 66  1  0
 36 67  1  0
 36 68  1  0
M  END
> <Name>
Molecule

> <AbsoluteEnergy>
80.7376

> <Clean Energy>
198.799

> <ConfNumber>
107

> <MOL_NUMBER>
8

> <RelativeEnergy>
19.1886

> <POSE_NUMBER>
31

> <LibDockScore>
123.2268

> <HotSpots>
1.67,-24.32,50.98,A,50,3
1.87,-24.92,46.78,A,22,6
-5.13,-20.52,44.98,P,17,16

$$$$
Molecule
  SciTegic05072616053D

 68 72  0  0  0  0            999 V2000
   -0.0228  -23.2803   47.2851 C   0  0  0  1  0  0
    0.3293  -24.6500   47.8954 C   0  0  0  1  0  0
    0.9502  -25.5940   46.8472 C   0  0  0  1  0  0
    1.1969  -24.5052   49.1267 C   0  0  0  1  0  0
    2.5188  -24.0509   48.9209 C   0  0  0  1  0  0
    3.4064  -23.8889   49.9908 C   0  0  0  1  0  0
    2.9845  -24.1814   51.2900 C   0  0  0  1  0  0
    1.6761  -24.6290   51.5182 C   0  0  0  1  0  0
    0.7487  -24.7963   50.4564 C   0  0  0  1  0  0
   -0.6788  -25.2744   50.7563 C   0  0  0  1  0  0
   -1.6682  -24.1224   50.5023 C   0  0  0  1  0  0
   -1.5354  -23.1166   51.1606 O   0  0  0  1  0  0
   -2.6776  -24.2256   49.5553 N   0  0  0  1  0  0
   -3.8690  -23.5086   49.4618 C   0  0  0  1  0  0
   -4.3236  -22.5754   50.4354 C   0  0  0  1  0  0
   -5.5073  -21.9136   50.2854 N   0  0  0  1  0  0
   -6.2600  -22.1576   49.1775 C   0  0  0  1  0  0
   -5.8267  -23.0765   48.2031 C   0  0  0  1  0  0
   -4.6449  -23.7380   48.3546 N   0  0  0  1  0  0
   -0.9027  -25.6613   52.2455 C   0  0  0  1  0  0
   -2.3469  -26.0732   52.5654 C   0  0  0  1  0  0
   -2.9493  -27.0415   51.5950 N   0  0  0  1  0  0
   -4.2344  -27.5533   51.8197 C   0  0  0  1  0  0
   -4.5272  -28.9218   51.5969 C   0  0  0  1  0  0
   -5.8191  -29.4309   51.7983 C   0  0  0  1  0  0
   -6.8529  -28.5848   52.2326 C   0  0  0  1  0  0
   -8.2451  -29.1306   52.4405 C   0  0  0  1  0  0
   -8.7791  -28.8715   53.8387 C   0  0  0  1  0  0
   -9.1487  -29.8084   54.5099 O   0  0  0  1  0  0
   -8.8287  -27.6193   54.2877 O   0  0  0  1  0  0
   -8.6468  -30.4242   51.7489 C   0  0  0  1  0  0
   -9.2310  -29.1142   51.2835 C   0  0  0  1  0  0
   -6.5803  -27.2289   52.4731 C   0  0  0  1  0  0
   -5.2874  -26.7197   52.2703 C   0  0  0  1  0  0
   -2.1809  -27.4439   50.3672 C   0  0  0  1  0  0
   -0.9075  -26.6293   50.0192 C   0  0  0  1  0  0
   -0.7290  -23.4345   46.4693 H   0  0
    0.8876  -22.8335   46.8856 H   0  0
   -0.4600  -22.6279   48.0410 H   0  0
   -0.6014  -25.1136   48.2223 H   0  0
    1.8526  -25.1282   46.4513 H   0  0
    0.2360  -25.7293   46.0350 H   0  0
    1.1921  -26.5566   47.2978 H   0  0
    2.8539  -23.8221   47.9092 H   0  0
    4.4220  -23.5362   49.8112 H   0  0
    3.6730  -24.0615   52.1265 H   0  0
    1.3624  -24.8545   52.5374 H   0  0
   -2.5190  -24.9573   48.7908 H   0  0
   -3.7138  -22.3855   51.3187 H   0  0
   -7.2078  -21.6361   49.0436 H   0  0
   -6.4406  -23.2602   47.3214 H   0  0
   -0.6312  -24.8144   52.8757 H   0  0
   -0.2373  -26.4865   52.4994 H   0  0
   -2.9688  -25.1785   52.5958 H   0  0
   -2.3724  -26.5164   53.5609 H   0  0
   -3.7344  -29.5911   51.2630 H   0  0
   -6.0212  -30.4866   51.6171 H   0  0
   -9.4048  -27.0976   53.5817 H   0  0
   -9.3591  -30.9929   52.3466 H   0  0
   -7.8645  -30.7775   51.0771 H   0  0
   -8.7615  -28.7687   50.3625 H   0  0
  -10.2551  -28.9832   51.6330 H   0  0
   -7.3756  -26.5685   52.8187 H   0  0
   -5.0907  -25.6650   52.4629 H   0  0
   -1.8983  -28.4915   50.4714 H   0  0
   -2.8569  -27.4019   49.5132 H   0  0
   -0.9118  -26.4360   48.9465 H   0  0
   -0.0401  -27.2648   50.1974 H   0  0
  1  2  1  0
  2  3  1  0
  2  4  1  0
  4  5  2  0
  4  9  1  0
  5  6  1  0
  6  7  2  0
  7  8  1  0
  8  9  2  0
  9 10  1  0
 10 11  1  0
 10 20  1  0
 10 36  1  0
 11 12  2  0
 11 13  1  0
 13 14  1  0
 14 15  2  0
 14 19  1  0
 15 16  1  0
 16 17  2  0
 17 18  1  0
 18 19  2  0
 20 21  1  0
 21 22  1  0
 22 23  1  0
 22 35  1  0
 23 24  2  0
 23 34  1  0
 24 25  1  0
 25 26  2  0
 26 27  1  0
 26 33  1  0
 27 28  1  0
 27 31  1  0
 27 32  1  0
 28 29  2  0
 28 30  1  0
 31 32  1  0
 33 34  2  0
 35 36  1  0
  1 37  1  0
  1 38  1  0
  1 39  1  0
  2 40  1  0
  3 41  1  0
  3 42  1  0
  3 43  1  0
  5 44  1  0
  6 45  1  0
  7 46  1  0
  8 47  1  0
 13 48  1  0
 15 49  1  0
 17 50  1  0
 18 51  1  0
 20 52  1  0
 20 53  1  0
 21 54  1  0
 21 55  1  0
 24 56  1  0
 25 57  1  0
 30 58  1  0
 31 59  1  0
 31 60  1  0
 32 61  1  0
 32 62  1  0
 33 63  1  0
 34 64  1  0
 35 65  1  0
 35 66  1  0
 36 67  1  0
 36 68  1  0
M  END
> <Name>
Molecule

> <AbsoluteEnergy>
66.6054

> <Clean Energy>
198.799

> <ConfNumber>
13

> <MOL_NUMBER>
8

> <RelativeEnergy>
5.05642

> <POSE_NUMBER>
32

> <LibDockScore>
123.1865

> <HotSpots>
0.27,-24.92,46.38,A,19,3
3.07,-24.52,50.38,A,43,7
-6.13,-22.12,49.98,A,41,17

$$$$
Molecule
  SciTegic05072616053D

 68 72  0  0  0  0            999 V2000
    0.6227  -23.1333   47.0681 C   0  0  0  1  0  0
    0.3728  -24.5267   47.6799 C   0  0  0  1  0  0
    1.0566  -25.6235   46.8366 C   0  0  0  1  0  0
    0.7922  -24.5872   49.1343 C   0  0  0  1  0  0
    2.1817  -24.5710   49.3872 C   0  0  0  1  0  0
    2.6848  -24.5737   50.6913 C   0  0  0  1  0  0
    1.8007  -24.5826   51.7722 C   0  0  0  1  0  0
    0.4194  -24.6093   51.5457 C   0  0  0  1  0  0
   -0.1263  -24.6505   50.2367 C   0  0  0  1  0  0
   -1.6495  -24.7525   50.0414 C   0  0  0  1  0  0
   -2.1405  -23.6538   49.0738 C   0  0  0  1  0  0
   -1.6858  -22.5333   49.1618 O   0  0  0  1  0  0
   -3.0947  -23.9412   48.1035 N   0  0  0  1  0  0
   -3.6051  -23.0696   47.1476 C   0  0  0  1  0  0
   -2.9426  -21.8717   46.7666 C   0  0  0  1  0  0
   -3.4629  -21.0456   45.8127 N   0  0  0  1  0  0
   -4.6505  -21.3796   45.2353 C   0  0  0  1  0  0
   -5.3310  -22.5539   45.6156 C   0  0  0  1  0  0
   -4.8071  -23.3838   46.5644 N   0  0  0  1  0  0
   -1.9926  -26.2116   49.5564 C   0  0  0  1  0  0
   -1.8900  -27.2818   50.6599 C   0  0  0  1  0  0
   -2.8232  -26.9011   51.7423 N   0  0  0  1  0  0
   -3.9770  -27.6163   52.0213 C   0  0  0  1  0  0
   -4.0908  -28.9876   51.6992 C   0  0  0  1  0  0
   -5.3132  -29.6577   51.8749 C   0  0  0  1  0  0
   -6.4300  -28.9642   52.3769 C   0  0  0  1  0  0
   -7.7873  -29.6252   52.4405 C   0  0  0  1  0  0
   -8.6960  -29.1894   51.2796 C   0  0  0  1  0  0
   -8.8341  -28.0047   51.0573 O   0  0  0  1  0  0
   -9.3257  -30.0980   50.5332 O   0  0  0  1  0  0
   -7.8944  -31.0341   53.0092 C   0  0  0  1  0  0
   -8.4188  -29.8609   53.8036 C   0  0  0  1  0  0
   -6.2931  -27.6291   52.7924 C   0  0  0  1  0  0
   -5.0766  -26.9587   52.6125 C   0  0  0  1  0  0
   -2.4721  -25.6280   52.4073 C   0  0  0  1  0  0
   -2.4810  -24.4923   51.3579 C   0  0  0  1  0  0
    0.2234  -23.1147   46.0541 H   0  0
    1.6964  -22.9490   47.0330 H   0  0
    0.1356  -22.3673   47.6714 H   0  0
   -0.7010  -24.7128   47.6593 H   0  0
    2.1284  -25.4278   46.8026 H   0  0
    0.6553  -25.5935   45.8236 H   0  0
    0.8734  -26.6031   47.2780 H   0  0
    2.8765  -24.5561   48.5475 H   0  0
    3.7611  -24.5689   50.8636 H   0  0
    2.1859  -24.5688   52.7918 H   0  0
   -0.2569  -24.5981   52.4004 H   0  0
   -3.4772  -24.9404   48.0912 H   0  0
   -2.0000  -21.6072   47.2457 H   0  0
   -5.0793  -20.7317   44.4708 H   0  0
   -6.2839  -22.8015   45.1480 H   0  0
   -1.3180  -26.4811   48.7437 H   0  0
   -3.0055  -26.2196   49.1539 H   0  0
   -0.8718  -27.3149   51.0475 H   0  0
   -2.1724  -28.2541   50.2562 H   0  0
   -3.2265  -29.5278   51.3128 H   0  0
   -5.3964  -30.7148   51.6223 H   0  0
   -9.8731  -30.6682   51.2244 H   0  0
   -6.9363  -31.3840   53.3936 H   0  0
   -8.7022  -31.5943   52.5382 H   0  0
   -9.5060  -29.7979   53.7574 H   0  0
   -7.7402  -29.5866   54.6113 H   0  0
   -7.1349  -27.1142   53.2555 H   0  0
   -4.9785  -25.9211   52.9316 H   0  0
   -3.2029  -25.4096   53.1860 H   0  0
   -1.4785  -25.7077   52.8484 H   0  0
   -2.1058  -23.5845   51.8304 H   0  0
   -3.5153  -24.2888   51.0805 H   0  0
  1  2  1  0
  2  3  1  0
  2  4  1  0
  4  5  2  0
  4  9  1  0
  5  6  1  0
  6  7  2  0
  7  8  1  0
  8  9  2  0
  9 10  1  0
 10 11  1  0
 10 20  1  0
 10 36  1  0
 11 12  2  0
 11 13  1  0
 13 14  1  0
 14 15  2  0
 14 19  1  0
 15 16  1  0
 16 17  2  0
 17 18  1  0
 18 19  2  0
 20 21  1  0
 21 22  1  0
 22 23  1  0
 22 35  1  0
 23 24  2  0
 23 34  1  0
 24 25  1  0
 25 26  2  0
 26 27  1  0
 26 33  1  0
 27 28  1  0
 27 31  1  0
 27 32  1  0
 28 29  2  0
 28 30  1  0
 31 32  1  0
 33 34  2  0
 35 36  1  0
  1 37  1  0
  1 38  1  0
  1 39  1  0
  2 40  1  0
  3 41  1  0
  3 42  1  0
  3 43  1  0
  5 44  1  0
  6 45  1  0
  7 46  1  0
  8 47  1  0
 13 48  1  0
 15 49  1  0
 17 50  1  0
 18 51  1  0
 20 52  1  0
 20 53  1  0
 21 54  1  0
 21 55  1  0
 24 56  1  0
 25 57  1  0
 30 58  1  0
 31 59  1  0
 31 60  1  0
 32 61  1  0
 32 62  1  0
 33 63  1  0
 34 64  1  0
 35 65  1  0
 35 66  1  0
 36 67  1  0
 36 68  1  0
M  END
> <Name>
Molecule

> <AbsoluteEnergy>
71.2663

> <Clean Energy>
198.799

> <ConfNumber>
35

> <MOL_NUMBER>
8

> <RelativeEnergy>
9.71728

> <POSE_NUMBER>
33

> <LibDockScore>
121.8829

> <HotSpots>
0.87,-24.32,52.78,A,63,7
-9.53,-30.12,52.78,A,62,31
-6.33,-26.32,51.98,A,57,34

$$$$
Molecule
  SciTegic05072616053D

 68 72  0  0  0  0            999 V2000
   -1.0224  -25.5908   46.9688 C   0  0  0  1  0  0
   -2.2808  -26.2198   47.6017 C   0  0  0  1  0  0
   -2.8346  -27.3659   46.7350 C   0  0  0  1  0  0
   -3.3425  -25.1878   47.9110 C   0  0  0  1  0  0
   -3.8546  -24.4610   46.8119 C   0  0  0  1  0  0
   -4.8137  -23.4587   46.9860 C   0  0  0  1  0  0
   -5.2861  -23.1696   48.2674 C   0  0  0  1  0  0
   -4.8082  -23.8915   49.3712 C   0  0  0  1  0  0
   -3.8397  -24.9197   49.2291 C   0  0  0  1  0  0
   -3.3546  -25.7035   50.4634 C   0  0  0  1  0  0
   -1.8295  -25.5281   50.6723 C   0  0  0  1  0  0
   -1.3069  -26.2259   51.5118 O   0  0  0  1  0  0
   -1.0618  -24.6324   49.9150 N   0  0  0  1  0  0
    0.3221  -24.4158   49.9551 C   0  0  0  1  0  0
    1.1744  -24.9310   50.9730 C   0  0  0  1  0  0
    2.5217  -24.7091   50.9581 N   0  0  0  1  0  0
    3.0589  -23.9696   49.9496 C   0  0  0  1  0  0
    2.2381  -23.4399   48.9369 C   0  0  0  1  0  0
    0.8905  -23.6628   48.9478 N   0  0  0  1  0  0
   -3.7485  -27.2186   50.2682 C   0  0  0  1  0  0
   -4.2136  -27.9847   51.5285 C   0  0  0  1  0  0
   -5.4170  -27.3516   52.1529 N   0  0  0  1  0  0
   -6.4409  -28.1032   52.7683 C   0  0  0  1  0  0
   -6.3102  -29.5036   52.9620 C   0  0  0  1  0  0
   -7.3251  -30.2590   53.5802 C   0  0  0  1  0  0
   -8.4986  -29.6374   54.0382 C   0  0  0  1  0  0
   -9.5817  -30.4485   54.7363 C   0  0  0  1  0  0
  -10.8089  -30.7668   53.8765 C   0  0  0  1  0  0
  -11.0216  -30.1196   52.8763 O   0  0  0  1  0  0
  -11.6354  -31.7505   54.2547 O   0  0  0  1  0  0
   -9.8327  -30.1916   56.2164 C   0  0  0  1  0  0
   -9.1538  -31.4691   55.7857 C   0  0  0  1  0  0
   -8.6554  -28.2527   53.8464 C   0  0  0  1  0  0
   -7.6416  -27.4958   53.2221 C   0  0  0  1  0  0
   -5.4404  -25.8560   52.0737 C   0  0  0  1  0  0
   -4.0230  -25.2626   51.8154 C   0  0  0  1  0  0
   -1.2830  -25.2086   45.9818 H   0  0
   -0.2632  -26.3653   46.8598 H   0  0
   -0.6454  -24.7827   47.5956 H   0  0
   -1.9756  -26.6491   48.5560 H   0  0
   -2.0612  -28.1265   46.6279 H   0  0
   -3.0809  -26.9697   45.7499 H   0  0
   -3.7223  -27.7973   47.1976 H   0  0
   -3.4944  -24.6866   45.8082 H   0  0
   -5.1906  -22.9058   46.1256 H   0  0
   -6.0266  -22.3826   48.4103 H   0  0
   -5.1907  -23.6567   50.3645 H   0  0
   -1.6047  -24.0346   49.2130 H   0  0
    0.7408  -25.5166   51.7836 H   0  0
    4.1331  -23.7863   49.9263 H   0  0
    2.6813  -22.8467   48.1370 H   0  0
   -2.8942  -27.7456   49.8434 H   0  0
   -4.5406  -27.2751   49.5215 H   0  0
   -3.4027  -28.0031   52.2567 H   0  0
   -4.4533  -29.0121   51.2545 H   0  0
   -5.4034  -30.0055   52.6244 H   0  0
   -7.1991  -31.3346   53.7043 H   0  0
  -11.9355  -31.4937   55.2276 H   0  0
  -10.8769  -30.3598   56.4799 H   0  0
   -9.1200  -29.4743   56.6235 H   0  0
   -8.0789  -31.4332   55.9626 H   0  0
   -9.8363  -32.3184   55.8174 H   0  0
   -9.5678  -27.7604   54.1829 H   0  0
   -7.7828  -26.4237   53.0854 H   0  0
   -5.8299  -25.4546   53.0092 H   0  0
   -6.1069  -25.5521   51.2665 H   0  0
   -4.0929  -24.1750   51.8330 H   0  0
   -3.3695  -25.5517   52.6385 H   0  0
  1  2  1  0
  2  3  1  0
  2  4  1  0
  4  5  2  0
  4  9  1  0
  5  6  1  0
  6  7  2  0
  7  8  1  0
  8  9  2  0
  9 10  1  0
 10 11  1  0
 10 20  1  0
 10 36  1  0
 11 12  2  0
 11 13  1  0
 13 14  1  0
 14 15  2  0
 14 19  1  0
 15 16  1  0
 16 17  2  0
 17 18  1  0
 18 19  2  0
 20 21  1  0
 21 22  1  0
 22 23  1  0
 22 35  1  0
 23 24  2  0
 23 34  1  0
 24 25  1  0
 25 26  2  0
 26 27  1  0
 26 33  1  0
 27 28  1  0
 27 31  1  0
 27 32  1  0
 28 29  2  0
 28 30  1  0
 31 32  1  0
 33 34  2  0
 35 36  1  0
  1 37  1  0
  1 38  1  0
  1 39  1  0
  2 40  1  0
  3 41  1  0
  3 42  1  0
  3 43  1  0
  5 44  1  0
  6 45  1  0
  7 46  1  0
  8 47  1  0
 13 48  1  0
 15 49  1  0
 17 50  1  0
 18 51  1  0
 20 52  1  0
 20 53  1  0
 21 54  1  0
 21 55  1  0
 24 56  1  0
 25 57  1  0
 30 58  1  0
 31 59  1  0
 31 60  1  0
 32 61  1  0
 32 62  1  0
 33 63  1  0
 34 64  1  0
 35 65  1  0
 35 66  1  0
 36 67  1  0
 36 68  1  0
M  END
> <Name>
Molecule

> <AbsoluteEnergy>
68.131

> <Clean Energy>
198.799

> <ConfNumber>
18

> <MOL_NUMBER>
8

> <RelativeEnergy>
6.58205

> <POSE_NUMBER>
34

> <LibDockScore>
121.2087

> <HotSpots>
-4.93,-23.52,47.59,A,26,6
3.07,-24.52,50.38,A,43,17
-8.73,-28.12,54.38,A,70,33

$$$$
Molecule
  SciTegic05072616053D

 68 72  0  0  0  0            999 V2000
   -2.8528  -21.9598   47.3074 C   0  0  0  1  0  0
   -3.5532  -23.0825   48.0983 C   0  0  0  1  0  0
   -4.9821  -22.6710   48.5009 C   0  0  0  1  0  0
   -3.5311  -24.3990   47.3490 C   0  0  0  1  0  0
   -4.2789  -24.4632   46.1518 C   0  0  0  1  0  0
   -4.3136  -25.6309   45.3809 C   0  0  0  1  0  0
   -3.5807  -26.7486   45.7840 C   0  0  0  1  0  0
   -2.8236  -26.7019   46.9608 C   0  0  0  1  0  0
   -2.8004  -25.5518   47.7908 C   0  0  0  1  0  0
   -2.0180  -25.5619   49.1156 C   0  0  0  1  0  0
   -0.6787  -24.8106   48.9568 C   0  0  0  1  0  0
   -0.3629  -24.3415   47.8849 O   0  0  0  1  0  0
    0.1567  -24.6712   50.0582 N   0  0  0  1  0  0
    1.4978  -24.3007   50.0803 C   0  0  0  1  0  0
    2.2647  -24.6179   51.2332 C   0  0  0  1  0  0
    3.5835  -24.2819   51.3267 N   0  0  0  1  0  0
    4.1667  -23.6266   50.2837 C   0  0  0  1  0  0
    3.4235  -23.3037   49.1304 C   0  0  0  1  0  0
    2.1025  -23.6404   49.0366 N   0  0  0  1  0  0
   -2.9306  -24.9238   50.2392 C   0  0  0  1  0  0
   -3.1330  -25.8036   51.4842 C   0  0  0  1  0  0
   -3.6425  -27.1382   51.0665 N   0  0  0  1  0  0
   -4.8845  -27.6493   51.4519 C   0  0  0  1  0  0
   -5.1359  -29.0423   51.3989 C   0  0  0  1  0  0
   -6.3804  -29.5683   51.7834 C   0  0  0  1  0  0
   -7.4007  -28.7139   52.2333 C   0  0  0  1  0  0
   -8.7367  -29.2840   52.6670 C   0  0  0  1  0  0
   -9.1877  -28.8141   54.0538 C   0  0  0  1  0  0
   -9.2674  -27.6265   54.2755 O   0  0  0  1  0  0
   -9.4865  -29.7169   54.9948 O   0  0  0  1  0  0
   -9.8007  -29.5163   51.6049 C   0  0  0  1  0  0
   -9.0921  -30.6965   52.2267 C   0  0  0  1  0  0
   -7.1697  -27.3275   52.2855 C   0  0  0  1  0  0
   -5.9267  -26.8006   51.8971 C   0  0  0  1  0  0
   -2.7328  -27.8951   50.1632 C   0  0  0  1  0  0
   -1.5983  -27.0051   49.5896 C   0  0  0  1  0  0
   -2.8129  -21.0653   47.9289 H   0  0
   -3.4361  -21.7451   46.4120 H   0  0
   -1.8441  -22.2660   47.0302 H   0  0
   -2.9884  -23.2382   49.0174 H   0  0
   -5.5515  -22.4516   47.5977 H   0  0
   -4.9283  -21.7718   49.1146 H   0  0
   -5.4633  -23.4744   49.0586 H   0  0
   -4.8387  -23.5877   45.8228 H   0  0
   -4.9104  -25.6674   44.4695 H   0  0
   -3.5979  -27.6575   45.1826 H   0  0
   -2.2355  -27.5738   47.2472 H   0  0
   -0.2875  -24.8745   51.0102 H   0  0
    1.7885  -25.1417   52.0620 H   0  0
    5.2192  -23.3492   50.3420 H   0  0
    3.9071  -22.7804   48.3055 H   0  0
   -2.4913  -23.9761   50.5506 H   0  0
   -3.9071  -24.6969   49.8114 H   0  0
   -2.1820  -25.9240   52.0031 H   0  0
   -3.8549  -25.3318   52.1508 H   0  0
   -4.3517  -29.7164   51.0545 H   0  0
   -6.5550  -30.6430   51.7325 H   0  0
   -8.6245  -30.3105   55.0793 H   0  0
   -9.4223  -29.3010   50.6056 H   0  0
  -10.8045  -29.3904   52.0107 H   0  0
   -9.7188  -31.1994   52.9632 H   0  0
   -8.3357  -31.1090   51.5590 H   0  0
   -7.9589  -26.6587   52.6290 H   0  0
   -5.7624  -25.7239   51.9390 H   0  0
   -2.2903  -28.7233   50.7167 H   0  0
   -3.3126  -28.3084   49.3379 H   0  0
   -1.1438  -27.5271   48.7476 H   0  0
   -0.8205  -26.9088   50.3471 H   0  0
  1  2  1  0
  2  3  1  0
  2  4  1  0
  4  5  2  0
  4  9  1  0
  5  6  1  0
  6  7  2  0
  7  8  1  0
  8  9  2  0
  9 10  1  0
 10 11  1  0
 10 20  1  0
 10 36  1  0
 11 12  2  0
 11 13  1  0
 13 14  1  0
 14 15  2  0
 14 19  1  0
 15 16  1  0
 16 17  2  0
 17 18  1  0
 18 19  2  0
 20 21  1  0
 21 22  1  0
 22 23  1  0
 22 35  1  0
 23 24  2  0
 23 34  1  0
 24 25  1  0
 25 26  2  0
 26 27  1  0
 26 33  1  0
 27 28  1  0
 27 31  1  0
 27 32  1  0
 28 29  2  0
 28 30  1  0
 31 32  1  0
 33 34  2  0
 35 36  1  0
  1 37  1  0
  1 38  1  0
  1 39  1  0
  2 40  1  0
  3 41  1  0
  3 42  1  0
  3 43  1  0
  5 44  1  0
  6 45  1  0
  7 46  1  0
  8 47  1  0
 13 48  1  0
 15 49  1  0
 17 50  1  0
 18 51  1  0
 20 52  1  0
 20 53  1  0
 21 54  1  0
 21 55  1  0
 24 56  1  0
 25 57  1  0
 30 58  1  0
 31 59  1  0
 31 60  1  0
 32 61  1  0
 32 62  1  0
 33 63  1  0
 34 64  1  0
 35 65  1  0
 35 66  1  0
 36 67  1  0
 36 68  1  0
M  END
> <Name>
Molecule

> <AbsoluteEnergy>
67.7412

> <Clean Energy>
198.799

> <ConfNumber>
17

> <MOL_NUMBER>
8

> <RelativeEnergy>
6.1922

> <POSE_NUMBER>
35

> <LibDockScore>
120.9705

> <HotSpots>
-3.33,-21.92,50.38,A,47,3
-4.53,-24.52,46.19,A,17,7
3.07,-24.52,50.38,A,43,15

$$$$
Molecule
  SciTegic05072616053D

 68 72  0  0  0  0            999 V2000
   -0.0531  -25.5386   47.0336 C   0  0  0  1  0  0
   -0.3853  -24.5195   48.1408 C   0  0  0  1  0  0
   -0.6130  -23.1149   47.5486 C   0  0  0  1  0  0
    0.6612  -24.5062   49.2364 C   0  0  0  1  0  0
    1.9946  -24.2853   48.8291 C   0  0  0  1  0  0
    3.0384  -24.2206   49.7580 C   0  0  0  1  0  0
    2.7616  -24.3451   51.1206 C   0  0  0  1  0  0
    1.4493  -24.5699   51.5481 C   0  0  0  1  0  0
    0.3770  -24.7073   50.6286 C   0  0  0  1  0  0
   -1.0201  -25.0973   51.1372 C   0  0  0  1  0  0
   -2.1012  -24.1443   50.5810 C   0  0  0  1  0  0
   -1.8073  -23.0010   50.3048 O   0  0  0  1  0  0
   -3.3985  -24.5932   50.3836 N   0  0  0  1  0  0
   -4.5807  -23.8729   50.3491 C   0  0  0  1  0  0
   -5.8059  -24.5926   50.3296 C   0  0  0  1  0  0
   -7.0044  -23.9471   50.2882 N   0  0  0  1  0  0
   -7.0097  -22.5842   50.2653 C   0  0  0  1  0  0
   -5.8010  -21.8570   50.2853 C   0  0  0  1  0  0
   -4.6003  -22.5029   50.3276 N   0  0  0  1  0  0
   -1.1258  -25.0671   52.6981 C   0  0  0  1  0  0
   -2.3973  -25.6801   53.3041 C   0  0  0  1  0  0
   -2.6679  -27.0434   52.7703 N   0  0  0  1  0  0
   -3.2056  -28.0404   53.5473 C   0  0  0  1  0  0
   -2.4577  -28.6763   54.5581 C   0  0  0  1  0  0
   -2.9290  -29.8769   55.1064 C   0  0  0  1  0  0
   -4.1340  -30.4303   54.6342 C   0  0  0  1  0  0
   -4.4520  -31.8679   54.9419 C   0  0  0  1  0  0
   -4.0615  -32.7423   53.7429 C   0  0  0  1  0  0
   -4.8246  -33.5913   53.3454 O   0  0  0  1  0  0
   -2.8695  -32.5411   53.1577 O   0  0  0  1  0  0
   -5.6662  -32.2239   55.7849 C   0  0  0  1  0  0
   -4.2761  -32.3997   56.3537 C   0  0  0  1  0  0
   -4.9872  -29.6681   53.8171 C   0  0  0  1  0  0
   -4.5215  -28.4644   53.2776 C   0  0  0  1  0  0
   -2.3452  -27.3915   51.3514 C   0  0  0  1  0  0
   -1.1739  -26.6055   50.7536 C   0  0  0  1  0  0
    0.8475  -25.2122   46.5135 H   0  0
   -0.8813  -25.5716   46.3257 H   0  0
    0.1052  -26.5263   47.4665 H   0  0
   -1.3176  -24.8376   48.6074 H   0  0
   -1.4379  -23.1622   46.8376 H   0  0
    0.2909  -22.8027   47.0255 H   0  0
   -0.8468  -22.4053   48.3423 H   0  0
    2.2154  -24.1626   47.7688 H   0  0
    4.0639  -24.0735   49.4192 H   0  0
    3.5674  -24.2672   51.8504 H   0  0
    1.2444  -24.6415   52.6163 H   0  0
   -3.5006  -25.6482   50.2368 H   0  0
   -5.7861  -25.6823   50.3481 H   0  0
   -7.9591  -22.0499   50.2311 H   0  0
   -5.8268  -20.7675   50.2668 H   0  0
   -1.0512  -24.0318   53.0308 H   0  0
   -0.2621  -25.5864   53.1133 H   0  0
   -3.2474  -25.0355   53.0808 H   0  0
   -2.2853  -25.7375   54.3868 H   0  0
   -1.5230  -28.2393   54.9097 H   0  0
   -2.3661  -30.3788   55.8934 H   0  0
   -2.1631  -32.6507   53.9268 H   0  0
   -6.0992  -33.1769   55.4809 H   0  0
   -6.1528  -31.3328   56.1814 H   0  0
   -4.0250  -31.6028   57.0538 H   0  0
   -3.9708  -33.4461   56.3520 H   0  0
   -6.0001  -30.0112   53.6064 H   0  0
   -5.1744  -27.8569   52.6509 H   0  0
   -2.1166  -28.4558   51.2962 H   0  0
   -3.2302  -27.2199   50.7387 H   0  0
   -1.2406  -26.6747   49.6678 H   0  0
   -0.2512  -27.1207   51.0207 H   0  0
  1  2  1  0
  2  3  1  0
  2  4  1  0
  4  5  2  0
  4  9  1  0
  5  6  1  0
  6  7  2  0
  7  8  1  0
  8  9  2  0
  9 10  1  0
 10 11  1  0
 10 20  1  0
 10 36  1  0
 11 12  2  0
 11 13  1  0
 13 14  1  0
 14 15  2  0
 14 19  1  0
 15 16  1  0
 16 17  2  0
 17 18  1  0
 18 19  2  0
 20 21  1  0
 21 22  1  0
 22 23  1  0
 22 35  1  0
 23 24  2  0
 23 34  1  0
 24 25  1  0
 25 26  2  0
 26 27  1  0
 26 33  1  0
 27 28  1  0
 27 31  1  0
 27 32  1  0
 28 29  2  0
 28 30  1  0
 31 32  1  0
 33 34  2  0
 35 36  1  0
  1 37  1  0
  1 38  1  0
  1 39  1  0
  2 40  1  0
  3 41  1  0
  3 42  1  0
  3 43  1  0
  5 44  1  0
  6 45  1  0
  7 46  1  0
  8 47  1  0
 13 48  1  0
 15 49  1  0
 17 50  1  0
 18 51  1  0
 20 52  1  0
 20 53  1  0
 21 54  1  0
 21 55  1  0
 24 56  1  0
 25 57  1  0
 30 58  1  0
 31 59  1  0
 31 60  1  0
 32 61  1  0
 32 62  1  0
 33 63  1  0
 34 64  1  0
 35 65  1  0
 35 66  1  0
 36 67  1  0
 36 68  1  0
M  END
> <Name>
Molecule

> <AbsoluteEnergy>
80.0416

> <Clean Energy>
198.799

> <ConfNumber>
102

> <MOL_NUMBER>
8

> <RelativeEnergy>
18.4926

> <POSE_NUMBER>
36

> <LibDockScore>
120.9615

> <HotSpots>
0.27,-24.92,46.38,A,19,5
-6.53,-23.32,50.38,A,45,15
-4.13,-31.12,56.59,A,79,32

$$$$
Molecule
  SciTegic05072616053D

 68 72  0  0  0  0            999 V2000
    0.3990  -23.1093   47.2709 C   0  0  0  1  0  0
    0.3226  -24.4911   47.9541 C   0  0  0  1  0  0
    1.0872  -25.5530   47.1430 C   0  0  0  1  0  0
    0.7895  -24.4573   49.3957 C   0  0  0  1  0  0
    2.1729  -24.2419   49.5998 C   0  0  0  1  0  0
    2.7276  -24.2300   50.8839 C   0  0  0  1  0  0
    1.9061  -24.4506   51.9914 C   0  0  0  1  0  0
    0.5332  -24.6649   51.8152 C   0  0  0  1  0  0
   -0.0741  -24.6380   50.5313 C   0  0  0  1  0  0
   -1.6013  -24.8248   50.4028 C   0  0  0  1  0  0
   -2.2385  -23.7102   49.5457 C   0  0  0  1  0  0
   -1.9349  -22.5505   49.7314 O   0  0  0  1  0  0
   -3.1612  -24.0421   48.5604 N   0  0  0  1  0  0
   -3.6010  -23.2528   47.5045 C   0  0  0  1  0  0
   -4.8014  -23.6147   46.8382 C   0  0  0  1  0  0
   -5.2741  -22.8867   45.7853 N   0  0  0  1  0  0
   -4.5691  -21.7939   45.3776 C   0  0  0  1  0  0
   -3.3780  -21.4201   46.0307 C   0  0  0  1  0  0
   -2.9061  -22.1471   47.0831 N   0  0  0  1  0  0
   -1.8075  -26.2648   49.7931 C   0  0  0  1  0  0
   -3.1350  -26.9921   50.0907 C   0  0  0  1  0  0
   -3.5605  -26.8630   51.5111 N   0  0  0  1  0  0
   -4.7640  -27.3958   51.9407 C   0  0  0  1  0  0
   -4.8010  -28.5158   52.7990 C   0  0  0  1  0  0
   -6.0328  -29.0691   53.1916 C   0  0  0  1  0  0
   -7.2442  -28.5045   52.7471 C   0  0  0  1  0  0
   -8.5676  -29.1251   53.1605 C   0  0  0  1  0  0
   -9.1501  -28.5655   54.4673 C   0  0  0  1  0  0
   -9.2247  -27.3654   54.6105 O   0  0  0  1  0  0
   -9.5673  -29.3938   55.4353 O   0  0  0  1  0  0
   -8.7519  -30.6072   52.8661 C   0  0  0  1  0  0
   -9.5305  -29.5845   52.0738 C   0  0  0  1  0  0
   -7.2085  -27.3641   51.9198 C   0  0  0  1  0  0
   -5.9799  -26.8160   51.5190 C   0  0  0  1  0  0
   -2.6592  -26.1090   52.4212 C   0  0  0  1  0  0
   -2.3680  -24.7402   51.7832 C   0  0  0  1  0  0
   -0.0329  -23.1864   46.2731 H   0  0
    1.4457  -22.8176   47.1842 H   0  0
   -0.1463  -22.3689   47.8562 H   0  0
   -0.7303  -24.7720   47.9768 H   0  0
    2.1296  -25.2461   47.0571 H   0  0
    0.6510  -25.6148   46.1460 H   0  0
    1.0243  -26.5224   47.6374 H   0  0
    2.8205  -24.0818   48.7378 H   0  0
    3.7940  -24.0497   51.0191 H   0  0
    2.3337  -24.4560   52.9940 H   0  0
   -0.0880  -24.8582   52.6897 H   0  0
   -3.5836  -25.0232   48.6224 H   0  0
   -5.3560  -24.4909   47.1742 H   0  0
   -4.9309  -21.2023   44.5366 H   0  0
   -2.8288  -20.5418   45.6915 H   0  0
   -1.6942  -26.1964   48.7112 H   0  0
   -0.9900  -26.9005   50.1333 H   0  0
   -3.0234  -28.0494   49.8503 H   0  0
   -3.9157  -26.5828   49.4495 H   0  0
   -3.8702  -28.9540   53.1593 H   0  0
   -6.0502  -29.9415   53.8448 H   0  0
   -8.7318  -29.9951   55.6422 H   0  0
   -9.3735  -31.0904   53.6199 H   0  0
   -7.9151  -31.0077   52.2938 H   0  0
   -9.1090  -29.4402   51.0790 H   0  0
  -10.5667  -29.5217   52.4061 H   0  0
   -8.1402  -26.9051   51.5893 H   0  0
   -5.9647  -25.9354   50.8768 H   0  0
   -3.1471  -25.9666   53.3854 H   0  0
   -1.7262  -26.6572   52.5520 H   0  0
   -1.7749  -24.1478   52.4800 H   0  0
   -3.3119  -24.2165   51.6316 H   0  0
  1  2  1  0
  2  3  1  0
  2  4  1  0
  4  5  2  0
  4  9  1  0
  5  6  1  0
  6  7  2  0
  7  8  1  0
  8  9  2  0
  9 10  1  0
 10 11  1  0
 10 20  1  0
 10 36  1  0
 11 12  2  0
 11 13  1  0
 13 14  1  0
 14 15  2  0
 14 19  1  0
 15 16  1  0
 16 17  2  0
 17 18  1  0
 18 19  2  0
 20 21  1  0
 21 22  1  0
 22 23  1  0
 22 35  1  0
 23 24  2  0
 23 34  1  0
 24 25  1  0
 25 26  2  0
 26 27  1  0
 26 33  1  0
 27 28  1  0
 27 31  1  0
 27 32  1  0
 28 29  2  0
 28 30  1  0
 31 32  1  0
 33 34  2  0
 35 36  1  0
  1 37  1  0
  1 38  1  0
  1 39  1  0
  2 40  1  0
  3 41  1  0
  3 42  1  0
  3 43  1  0
  5 44  1  0
  6 45  1  0
  7 46  1  0
  8 47  1  0
 13 48  1  0
 15 49  1  0
 17 50  1  0
 18 51  1  0
 20 52  1  0
 20 53  1  0
 21 54  1  0
 21 55  1  0
 24 56  1  0
 25 57  1  0
 30 58  1  0
 31 59  1  0
 31 60  1  0
 32 61  1  0
 32 62  1  0
 33 63  1  0
 34 64  1  0
 35 65  1  0
 35 66  1  0
 36 67  1  0
 36 68  1  0
M  END
> <Name>
Molecule

> <AbsoluteEnergy>
73.3799

> <Clean Energy>
198.799

> <ConfNumber>
51

> <MOL_NUMBER>
8

> <RelativeEnergy>
11.8309

> <POSE_NUMBER>
37

> <LibDockScore>
120.6534

> <HotSpots>
2.27,-24.92,52.19,A,58,7
-4.93,-23.52,47.59,A,26,15
-9.33,-29.92,51.19,A,52,32

$$$$
Molecule
  SciTegic05072616053D

 68 72  0  0  0  0            999 V2000
    2.5319  -24.1708   48.7696 C   0  0  0  1  0  0
    1.3283  -24.7092   47.9673 C   0  0  0  1  0  0
    1.8158  -25.4653   46.7100 C   0  0  0  1  0  0
    0.3357  -23.6168   47.6376 C   0  0  0  1  0  0
    0.7849  -22.5991   46.7591 C   0  0  0  1  0  0
   -0.0863  -21.6197   46.2690 C   0  0  0  1  0  0
   -1.4312  -21.6451   46.6436 C   0  0  0  1  0  0
   -1.8830  -22.6129   47.5509 C   0  0  0  1  0  0
   -1.0100  -23.5693   48.1385 C   0  0  0  1  0  0
   -1.5818  -24.4951   49.2385 C   0  0  0  1  0  0
   -2.8229  -23.8465   49.9158 C   0  0  0  1  0  0
   -2.6737  -22.7274   50.3690 O   0  0  0  1  0  0
   -4.0630  -24.4777   50.0318 N   0  0  0  1  0  0
   -5.3089  -23.8556   50.1336 C   0  0  0  1  0  0
   -6.4849  -24.6542   50.2069 C   0  0  0  1  0  0
   -7.7242  -24.0877   50.2947 N   0  0  0  1  0  0
   -7.8259  -22.7264   50.3184 C   0  0  0  1  0  0
   -6.6726  -21.9174   50.2506 C   0  0  0  1  0  0
   -5.4354  -22.4837   50.1605 N   0  0  0  1  0  0
   -1.8290  -25.8978   48.5716 C   0  0  0  1  0  0
   -1.4138  -27.1053   49.4422 C   0  0  0  1  0  0
   -1.8395  -26.8935   50.8527 N   0  0  0  1  0  0
   -2.7892  -27.7195   51.4442 C   0  0  0  1  0  0
   -3.4303  -28.7404   50.6983 C   0  0  0  1  0  0
   -4.5050  -29.4648   51.2464 C   0  0  0  1  0  0
   -4.9470  -29.1784   52.5510 C   0  0  0  1  0  0
   -6.1943  -29.8252   53.1130 C   0  0  0  1  0  0
   -7.4098  -28.8965   53.0191 C   0  0  0  1  0  0
   -8.4928  -29.3657   52.7407 O   0  0  0  1  0  0
   -7.2480  -27.5835   53.2486 O   0  0  0  1  0  0
   -6.0665  -30.7217   54.3375 C   0  0  0  1  0  0
   -6.3908  -31.3330   52.9925 C   0  0  0  1  0  0
   -4.2410  -28.2483   53.3370 C   0  0  0  1  0  0
   -3.1665  -27.5317   52.7928 C   0  0  0  1  0  0
   -1.2393  -25.6984   51.5292 C   0  0  0  1  0  0
   -0.6636  -24.6832   50.5002 C   0  0  0  1  0  0
    3.1079  -23.4938   48.1387 H   0  0
    3.1638  -25.0066   49.0701 H   0  0
    2.1803  -23.6393   49.6539 H   0  0
    0.7911  -25.4217   48.5933 H   0  0
    2.4498  -26.2973   47.0166 H   0  0
    2.3939  -24.7845   46.0852 H   0  0
    0.9606  -25.8422   46.1491 H   0  0
    1.8324  -22.5789   46.4585 H   0  0
    0.2824  -20.8425   45.5996 H   0  0
   -2.1274  -20.9145   46.2317 H   0  0
   -2.9402  -22.6332   47.8153 H   0  0
   -4.0580  -25.5476   50.0439 H   0  0
   -6.3943  -25.7403   50.1926 H   0  0
   -8.8085  -22.2600   50.3905 H   0  0
   -6.7709  -20.8320   50.2704 H   0  0
   -1.2804  -25.9412   47.6307 H   0  0
   -2.8880  -25.9894   48.3302 H   0  0
   -0.3308  -27.2230   49.4063 H   0  0
   -1.8844  -28.0091   49.0552 H   0  0
   -3.0869  -28.9668   49.6889 H   0  0
   -4.9932  -30.2449   50.6624 H   0  0
   -6.5089  -27.2771   52.5686 H   0  0
   -6.9494  -30.6584   54.9735 H   0  0
   -5.0229  -30.8796   54.6097 H   0  0
   -5.5194  -31.8153   52.5495 H   0  0
   -7.4464  -31.5926   52.9128 H   0  0
   -4.5316  -28.0845   54.3747 H   0  0
   -2.6178  -26.8243   53.4145 H   0  0
   -0.4395  -26.0265   52.1931 H   0  0
   -2.0046  -25.2050   52.1283 H   0  0
   -0.5325  -23.7189   50.9911 H   0  0
    0.3183  -25.0276   50.1756 H   0  0
  1  2  1  0
  2  3  1  0
  2  4  1  0
  4  5  2  0
  4  9  1  0
  5  6  1  0
  6  7  2  0
  7  8  1  0
  8  9  2  0
  9 10  1  0
 10 11  1  0
 10 20  1  0
 10 36  1  0
 11 12  2  0
 11 13  1  0
 13 14  1  0
 14 15  2  0
 14 19  1  0
 15 16  1  0
 16 17  2  0
 17 18  1  0
 18 19  2  0
 20 21  1  0
 21 22  1  0
 22 23  1  0
 22 35  1  0
 23 24  2  0
 23 34  1  0
 24 25  1  0
 25 26  2  0
 26 27  1  0
 26 33  1  0
 27 28  1  0
 27 31  1  0
 27 32  1  0
 28 29  2  0
 28 30  1  0
 31 32  1  0
 33 34  2  0
 35 36  1  0
  1 37  1  0
  1 38  1  0
  1 39  1  0
  2 40  1  0
  3 41  1  0
  3 42  1  0
  3 43  1  0
  5 44  1  0
  6 45  1  0
  7 46  1  0
  8 47  1  0
 13 48  1  0
 15 49  1  0
 17 50  1  0
 18 51  1  0
 20 52  1  0
 20 53  1  0
 21 54  1  0
 21 55  1  0
 24 56  1  0
 25 57  1  0
 30 58  1  0
 31 59  1  0
 31 60  1  0
 32 61  1  0
 32 62  1  0
 33 63  1  0
 34 64  1  0
 35 65  1  0
 35 66  1  0
 36 67  1  0
 36 68  1  0
M  END
> <Name>
Molecule

> <AbsoluteEnergy>
78.2374

> <Clean Energy>
198.799

> <ConfNumber>
90

> <MOL_NUMBER>
8

> <RelativeEnergy>
16.6884

> <POSE_NUMBER>
38

> <LibDockScore>
120.4589

> <HotSpots>
2.67,-23.92,48.98,A,32,1
1.87,-24.92,46.78,A,22,3
-1.73,-21.72,46.78,A,24,7

$$$$
Molecule
  SciTegic05072616053D

 68 72  0  0  0  0            999 V2000
    2.0081  -24.9349   49.2235 C   0  0  0  1  0  0
    0.7373  -24.6888   48.3858 C   0  0  0  1  0  0
    1.0551  -24.6432   46.8792 C   0  0  0  1  0  0
   -0.3533  -25.6908   48.6980 C   0  0  0  1  0  0
   -0.1184  -27.0211   48.2844 C   0  0  0  1  0  0
   -1.0685  -28.0241   48.4965 C   0  0  0  1  0  0
   -2.2817  -27.7065   49.1117 C   0  0  0  1  0  0
   -2.5369  -26.3901   49.5191 C   0  0  0  1  0  0
   -1.5802  -25.3596   49.3647 C   0  0  0  1  0  0
   -1.8673  -23.9359   49.8806 C   0  0  0  1  0  0
   -1.9421  -23.0148   48.6506 C   0  0  0  1  0  0
   -1.1356  -22.1375   48.4351 O   0  0  0  1  0  0
   -3.0340  -23.2419   47.8192 N   0  0  0  1  0  0
   -3.5664  -22.4919   46.7913 C   0  0  0  1  0  0
   -4.8122  -22.9206   46.2660 C   0  0  0  1  0  0
   -5.4371  -22.2372   45.2771 N   0  0  0  1  0  0
   -4.8328  -21.1195   44.7793 C   0  0  0  1  0  0
   -3.5877  -20.6863   45.2856 C   0  0  0  1  0  0
   -2.9598  -21.3730   46.2864 N   0  0  0  1  0  0
   -0.8560  -23.6565   51.0552 C   0  0  0  1  0  0
   -1.1006  -24.6081   52.2856 C   0  0  0  1  0  0
   -2.5653  -24.8201   52.4805 N   0  0  0  1  0  0
   -3.1686  -26.0190   52.8425 C   0  0  0  1  0  0
   -4.5413  -26.1849   52.5435 C   0  0  0  1  0  0
   -5.1956  -27.3887   52.7889 C   0  0  0  1  0  0
   -4.5021  -28.4558   53.3788 C   0  0  0  1  0  0
   -5.2273  -29.7587   53.6071 C   0  0  0  1  0  0
   -5.7939  -29.9067   55.0179 C   0  0  0  1  0  0
   -5.3223  -30.7268   55.7740 O   0  0  0  1  0  0
   -6.8093  -29.1290   55.3997 O   0  0  0  1  0  0
   -6.0838  -30.2796   52.4598 C   0  0  0  1  0  0
   -4.8065  -30.9942   52.8259 C   0  0  0  1  0  0
   -3.1467  -28.2945   53.7352 C   0  0  0  1  0  0
   -2.4777  -27.0824   53.4649 C   0  0  0  1  0  0
   -3.3605  -23.6613   52.0682 C   0  0  0  1  0  0
   -3.2955  -23.6265   50.5364 C   0  0  0  1  0  0
    2.7173  -24.1314   49.0245 H   0  0
    2.4503  -25.8823   48.9152 H   0  0
    1.7636  -24.9639   50.2853 H   0  0
    0.3537  -23.7085   48.6686 H   0  0
    1.5048  -25.5929   46.5894 H   0  0
    1.7718  -23.8420   46.6987 H   0  0
    0.1458  -24.4686   46.3041 H   0  0
    0.8211  -27.2699   47.7908 H   0  0
   -0.8639  -29.0480   48.1837 H   0  0
   -3.0297  -28.4823   49.2749 H   0  0
   -3.5014  -26.1532   49.9683 H   0  0
   -3.5514  -24.1588   48.0105 H   0  0
   -5.2777  -23.8208   46.6673 H   0  0
   -5.3164  -20.5549   43.9822 H   0  0
   -3.1211  -19.7920   44.8725 H   0  0
    0.1616  -23.7988   50.6915 H   0  0
   -0.9612  -22.6212   51.3794 H   0  0
   -0.6780  -24.1572   53.1835 H   0  0
   -0.6174  -25.5680   52.1032 H   0  0
   -5.0980  -25.3530   52.1121 H   0  0
   -6.2465  -27.5021   52.5228 H   0  0
   -7.5638  -29.3012   54.6900 H   0  0
   -5.9625  -29.6722   51.5629 H   0  0
   -6.9620  -30.8108   52.8269 H   0  0
   -5.0031  -31.9082   53.3864 H   0  0
   -4.0036  -30.7687   52.1240 H   0  0
   -2.6135  -29.1110   54.2221 H   0  0
   -1.4284  -26.9664   53.7361 H   0  0
   -4.3939  -23.7846   52.3921 H   0  0
   -2.9292  -22.7478   52.4776 H   0  0
   -3.6251  -22.6431   50.2013 H   0  0
   -4.0195  -24.3418   50.1462 H   0  0
  1  2  1  0
  2  3  1  0
  2  4  1  0
  4  5  2  0
  4  9  1  0
  5  6  1  0
  6  7  2  0
  7  8  1  0
  8  9  2  0
  9 10  1  0
 10 11  1  0
 10 20  1  0
 10 36  1  0
 11 12  2  0
 11 13  1  0
 13 14  1  0
 14 15  2  0
 14 19  1  0
 15 16  1  0
 16 17  2  0
 17 18  1  0
 18 19  2  0
 20 21  1  0
 21 22  1  0
 22 23  1  0
 22 35  1  0
 23 24  2  0
 23 34  1  0
 24 25  1  0
 25 26  2  0
 26 27  1  0
 26 33  1  0
 27 28  1  0
 27 31  1  0
 27 32  1  0
 28 29  2  0
 28 30  1  0
 31 32  1  0
 33 34  2  0
 35 36  1  0
  1 37  1  0
  1 38  1  0
  1 39  1  0
  2 40  1  0
  3 41  1  0
  3 42  1  0
  3 43  1  0
  5 44  1  0
  6 45  1  0
  7 46  1  0
  8 47  1  0
 13 48  1  0
 15 49  1  0
 17 50  1  0
 18 51  1  0
 20 52  1  0
 20 53  1  0
 21 54  1  0
 21 55  1  0
 24 56  1  0
 25 57  1  0
 30 58  1  0
 31 59  1  0
 31 60  1  0
 32 61  1  0
 32 62  1  0
 33 63  1  0
 34 64  1  0
 35 65  1  0
 35 66  1  0
 36 67  1  0
 36 68  1  0
M  END
> <Name>
Molecule

> <AbsoluteEnergy>
80.7612

> <Clean Energy>
198.799

> <ConfNumber>
109

> <MOL_NUMBER>
8

> <RelativeEnergy>
19.2122

> <POSE_NUMBER>
39

> <LibDockScore>
120.0111

> <HotSpots>
0.27,-24.92,46.38,A,19,3
-3.53,-20.52,45.19,A,12,18
-6.53,-30.72,51.78,A,56,31

$$$$
Molecule
  SciTegic05072616053D

 68 72  0  0  0  0            999 V2000
   -0.8563  -26.1387   48.4807 C   0  0  0  1  0  0
   -0.0762  -24.9200   48.9879 C   0  0  0  1  0  0
   -0.7844  -23.5956   48.6372 C   0  0  0  1  0  0
    0.5395  -24.9471   50.3894 C   0  0  0  1  0  0
    1.9157  -24.5974   50.3969 C   0  0  0  1  0  0
    2.6690  -24.5521   51.5701 C   0  0  0  1  0  0
    2.0616  -24.8575   52.7851 C   0  0  0  1  0  0
    0.7049  -25.2016   52.8209 C   0  0  0  1  0  0
   -0.1024  -25.2611   51.6502 C   0  0  0  1  0  0
   -1.5946  -25.6416   51.8056 C   0  0  0  1  0  0
   -2.4584  -24.4378   51.3879 C   0  0  0  1  0  0
   -1.9631  -23.3295   51.4134 O   0  0  0  1  0  0
   -3.7802  -24.6062   50.9958 N   0  0  0  1  0  0
   -4.6838  -23.6112   50.6430 C   0  0  0  1  0  0
   -6.0590  -23.9456   50.5441 C   0  0  0  1  0  0
   -6.9909  -23.0152   50.1906 N   0  0  0  1  0  0
   -6.5776  -21.7433   49.9211 C   0  0  0  1  0  0
   -5.2162  -21.3926   50.0215 C   0  0  0  1  0  0
   -4.2864  -22.3228   50.3818 N   0  0  0  1  0  0
   -2.0515  -25.8837   53.2944 C   0  0  0  1  0  0
   -3.4841  -26.4571   53.4598 C   0  0  0  1  0  0
   -3.6910  -27.6677   52.6108 N   0  0  0  1  0  0
   -4.9252  -28.3061   52.4990 C   0  0  0  1  0  0
   -6.1302  -27.6018   52.7171 C   0  0  0  1  0  0
   -7.3739  -28.2469   52.5786 C   0  0  0  1  0  0
   -7.4409  -29.6070   52.2085 C   0  0  0  1  0  0
   -8.7837  -30.2937   52.0069 C   0  0  0  1  0  0
   -9.6191  -30.4738   53.2807 C   0  0  0  1  0  0
   -9.6458  -29.5703   54.0830 O   0  0  0  1  0  0
  -10.3246  -31.5930   53.5053 O   0  0  0  1  0  0
   -9.5647  -29.9697   50.7397 C   0  0  0  1  0  0
   -8.8978  -31.3133   50.8775 C   0  0  0  1  0  0
   -6.2434  -30.3184   52.0119 C   0  0  0  1  0  0
   -4.9985  -29.6752   52.1538 C   0  0  0  1  0  0
   -2.4921  -28.1459   51.8725 C   0  0  0  1  0  0
   -1.8606  -27.0015   51.0474 C   0  0  0  1  0  0
   -0.9599  -26.0553   47.3989 H   0  0
   -1.8485  -26.1245   48.9318 H   0  0
   -0.3375  -27.0616   48.7398 H   0  0
    0.8433  -24.9951   48.4074 H   0  0
   -1.7773  -23.6065   49.0868 H   0  0
   -0.8887  -23.5373   47.5538 H   0  0
   -0.2122  -22.7449   49.0073 H   0  0
    2.4012  -24.3555   49.4514 H   0  0
    3.7239  -24.2800   51.5359 H   0  0
    2.6417  -24.8287   53.7075 H   0  0
    0.2489  -25.4331   53.7835 H   0  0
   -4.1424  -25.6125   50.9617 H   0  0
   -6.3769  -24.9667   50.7549 H   0  0
   -7.3080  -20.9903   49.6250 H   0  0
   -4.9041  -20.3700   49.8095 H   0  0
   -1.9905  -24.9403   53.8369 H   0  0
   -1.3470  -26.5669   53.7688 H   0  0
   -3.6460  -26.7217   54.5047 H   0  0
   -4.2111  -25.6953   53.1784 H   0  0
   -6.0967  -26.5485   52.9954 H   0  0
   -8.2937  -27.6905   52.7589 H   0  0
   -9.6112  -32.3598   53.4311 H   0  0
   -9.0026  -29.3060   50.0827 H   0  0
  -10.6399  -30.0341   50.9064 H   0  0
   -9.6158  -32.0971   51.1187 H   0  0
   -7.9774  -31.3684   50.2962 H   0  0
   -6.2792  -31.3753   51.7478 H   0  0
   -4.0799  -30.2401   51.9955 H   0  0
   -2.7806  -28.9554   51.2020 H   0  0
   -1.7580  -28.5232   52.5845 H   0  0
   -0.9165  -27.3577   50.6353 H   0  0
   -2.5063  -26.7990   50.1929 H   0  0
  1  2  1  0
  2  3  1  0
  2  4  1  0
  4  5  2  0
  4  9  1  0
  5  6  1  0
  6  7  2  0
  7  8  1  0
  8  9  2  0
  9 10  1  0
 10 11  1  0
 10 20  1  0
 10 36  1  0
 11 12  2  0
 11 13  1  0
 13 14  1  0
 14 15  2  0
 14 19  1  0
 15 16  1  0
 16 17  2  0
 17 18  1  0
 18 19  2  0
 20 21  1  0
 21 22  1  0
 22 23  1  0
 22 35  1  0
 23 24  2  0
 23 34  1  0
 24 25  1  0
 25 26  2  0
 26 27  1  0
 26 33  1  0
 27 28  1  0
 27 31  1  0
 27 32  1  0
 28 29  2  0
 28 30  1  0
 31 32  1  0
 33 34  2  0
 35 36  1  0
  1 37  1  0
  1 38  1  0
  1 39  1  0
  2 40  1  0
  3 41  1  0
  3 42  1  0
  3 43  1  0
  5 44  1  0
  6 45  1  0
  7 46  1  0
  8 47  1  0
 13 48  1  0
 15 49  1  0
 17 50  1  0
 18 51  1  0
 20 52  1  0
 20 53  1  0
 21 54  1  0
 21 55  1  0
 24 56  1  0
 25 57  1  0
 30 58  1  0
 31 59  1  0
 31 60  1  0
 32 61  1  0
 32 62  1  0
 33 63  1  0
 34 64  1  0
 35 65  1  0
 35 66  1  0
 36 67  1  0
 36 68  1  0
M  END
> <Name>
Molecule

> <AbsoluteEnergy>
80.0828

> <Clean Energy>
198.799

> <ConfNumber>
103

> <MOL_NUMBER>
8

> <RelativeEnergy>
18.5338

> <POSE_NUMBER>
40

> <LibDockScore>
119.717

> <HotSpots>
3.07,-24.52,50.38,A,43,6
-6.13,-22.12,49.98,A,41,17
-8.53,-31.32,51.19,A,51,32

$$$$
Molecule
  SciTegic05072616053D

 68 72  0  0  0  0            999 V2000
    2.0366  -25.1194   51.1094 C   0  0  0  1  0  0
    1.3983  -24.0235   50.2324 C   0  0  0  1  0  0
    2.3154  -22.7773   50.2239 C   0  0  0  1  0  0
    1.0224  -24.5702   48.8685 C   0  0  0  1  0  0
    1.9240  -24.3189   47.8029 C   0  0  0  1  0  0
    1.6938  -24.8018   46.5100 C   0  0  0  1  0  0
    0.5565  -25.5640   46.2498 C   0  0  0  1  0  0
   -0.3491  -25.8298   47.2804 C   0  0  0  1  0  0
   -0.1682  -25.3349   48.5984 C   0  0  0  1  0  0
   -1.2905  -25.7239   49.5829 C   0  0  0  1  0  0
   -2.6438  -25.1601   49.0960 C   0  0  0  1  0  0
   -3.3356  -25.8263   48.3569 O   0  0  0  1  0  0
   -3.0581  -23.9002   49.5185 N   0  0  0  1  0  0
   -4.3616  -23.4795   49.7670 C   0  0  0  1  0  0
   -4.6080  -22.0975   49.9807 C   0  0  0  1  0  0
   -5.8648  -21.6284   50.2339 N   0  0  0  1  0  0
   -6.8958  -22.5179   50.2815 C   0  0  0  1  0  0
   -6.6717  -23.8918   50.0669 C   0  0  0  1  0  0
   -5.4139  -24.3587   49.8133 N   0  0  0  1  0  0
   -1.3257  -27.2928   49.6421 C   0  0  0  1  0  0
   -1.8334  -27.9087   50.9667 C   0  0  0  1  0  0
   -2.8635  -27.0504   51.6088 N   0  0  0  1  0  0
   -4.1342  -27.5304   51.8974 C   0  0  0  1  0  0
   -4.3829  -28.9220   51.9356 C   0  0  0  1  0  0
   -5.6710  -29.4104   52.2081 C   0  0  0  1  0  0
   -6.7316  -28.5182   52.4429 C   0  0  0  1  0  0
   -8.1210  -29.0487   52.7179 C   0  0  0  1  0  0
   -8.6922  -29.8639   51.5616 C   0  0  0  1  0  0
   -9.4449  -29.3269   50.7788 O   0  0  0  1  0  0
   -8.3494  -31.1475   51.4374 O   0  0  0  1  0  0
   -8.4688  -29.4552   54.1429 C   0  0  0  1  0  0
   -9.0920  -28.2182   53.5431 C   0  0  0  1  0  0
   -6.4910  -27.1312   52.4138 C   0  0  0  1  0  0
   -5.2029  -26.6405   52.1466 C   0  0  0  1  0  0
   -2.4530  -25.6427   51.8944 C   0  0  0  1  0  0
   -1.2133  -25.2290   51.0618 C   0  0  0  1  0  0
    2.1554  -24.7499   52.1280 H   0  0
    3.0119  -25.3900   50.7048 H   0  0
    1.3923  -25.9986   51.1170 H   0  0
    0.4491  -23.6910   50.6527 H   0  0
    3.2912  -23.0438   49.8178 H   0  0
    2.4347  -22.4038   51.2409 H   0  0
    1.8663  -22.0009   49.6045 H   0  0
    2.8222  -23.7326   47.9967 H   0  0
    2.4009  -24.5828   45.7099 H   0  0
    0.3742  -25.9510   45.2472 H   0  0
   -1.2264  -26.4394   47.0642 H   0  0
   -2.2878  -23.1730   49.6693 H   0  0
   -3.7751  -21.3955   49.9417 H   0  0
   -7.9053  -22.1623   50.4880 H   0  0
   -7.5094  -24.5882   50.1036 H   0  0
   -0.3216  -27.6705   49.4489 H   0  0
   -1.9546  -27.6563   48.8294 H   0  0
   -0.9940  -28.0314   51.6511 H   0  0
   -2.2620  -28.8903   50.7646 H   0  0
   -3.5676  -29.6217   51.7519 H   0  0
   -5.8491  -30.4853   52.2377 H   0  0
   -8.6138  -31.5890   52.3527 H   0  0
   -7.6665  -29.2053   54.8371 H   0  0
   -9.1687  -30.2906   54.1602 H   0  0
  -10.1248  -28.3936   53.2420 H   0  0
   -8.6219  -27.3088   53.9174 H   0  0
   -7.3088  -26.4349   52.5996 H   0  0
   -5.0261  -25.5650   52.1313 H   0  0
   -2.2201  -25.5452   52.9548 H   0  0
   -3.2811  -24.9741   51.6593 H   0  0
   -1.1273  -24.1424   51.0701 H   0  0
   -0.3189  -25.6416   51.5286 H   0  0
  1  2  1  0
  2  3  1  0
  2  4  1  0
  4  5  2  0
  4  9  1  0
  5  6  1  0
  6  7  2  0
  7  8  1  0
  8  9  2  0
  9 10  1  0
 10 11  1  0
 10 20  1  0
 10 36  1  0
 11 12  2  0
 11 13  1  0
 13 14  1  0
 14 15  2  0
 14 19  1  0
 15 16  1  0
 16 17  2  0
 17 18  1  0
 18 19  2  0
 20 21  1  0
 21 22  1  0
 22 23  1  0
 22 35  1  0
 23 24  2  0
 23 34  1  0
 24 25  1  0
 25 26  2  0
 26 27  1  0
 26 33  1  0
 27 28  1  0
 27 31  1  0
 27 32  1  0
 28 29  2  0
 28 30  1  0
 31 32  1  0
 33 34  2  0
 35 36  1  0
  1 37  1  0
  1 38  1  0
  1 39  1  0
  2 40  1  0
  3 41  1  0
  3 42  1  0
  3 43  1  0
  5 44  1  0
  6 45  1  0
  7 46  1  0
  8 47  1  0
 13 48  1  0
 15 49  1  0
 17 50  1  0
 18 51  1  0
 20 52  1  0
 20 53  1  0
 21 54  1  0
 21 55  1  0
 24 56  1  0
 25 57  1  0
 30 58  1  0
 31 59  1  0
 31 60  1  0
 32 61  1  0
 32 62  1  0
 33 63  1  0
 34 64  1  0
 35 65  1  0
 35 66  1  0
 36 67  1  0
 36 68  1  0
M  END
> <Name>
Molecule

> <AbsoluteEnergy>
73.4378

> <Clean Energy>
198.799

> <ConfNumber>
53

> <MOL_NUMBER>
8

> <RelativeEnergy>
11.8888

> <POSE_NUMBER>
41

> <LibDockScore>
119.7144

> <HotSpots>
2.67,-22.92,49.98,A,39,3
1.27,-23.52,47.59,A,27,5
-4.73,-22.32,50.38,A,46,15

$$$$
Molecule
  SciTegic05072616053D

 68 72  0  0  0  0            999 V2000
    0.9671  -25.4368   46.3840 C   0  0  0  1  0  0
    0.3962  -24.3043   47.2595 C   0  0  0  1  0  0
    0.5524  -22.9371   46.5654 C   0  0  0  1  0  0
    0.9960  -24.3015   48.6509 C   0  0  0  1  0  0
    2.4016  -24.4054   48.7295 C   0  0  0  1  0  0
    3.0659  -24.3806   49.9603 C   0  0  0  1  0  0
    2.3349  -24.2192   51.1386 C   0  0  0  1  0  0
    0.9411  -24.1196   51.0867 C   0  0  0  1  0  0
    0.2306  -24.2078   49.8613 C   0  0  0  1  0  0
   -1.3061  -24.2387   49.8697 C   0  0  0  1  0  0
   -1.8884  -23.2626   48.8235 C   0  0  0  1  0  0
   -1.4604  -22.1302   48.7572 O   0  0  0  1  0  0
   -2.8849  -23.6787   47.9532 N   0  0  0  1  0  0
   -3.5096  -22.9783   46.9351 C   0  0  0  1  0  0
   -4.6413  -23.5680   46.3097 C   0  0  0  1  0  0
   -5.2983  -22.9372   45.2972 N   0  0  0  1  0  0
   -4.8477  -21.7171   44.8889 C   0  0  0  1  0  0
   -3.7263  -21.1196   45.5015 C   0  0  0  1  0  0
   -3.0682  -21.7506   46.5162 N   0  0  0  1  0  0
   -1.9112  -23.8521   51.2600 C   0  0  0  1  0  0
   -3.4174  -24.0972   51.4363 C   0  0  0  1  0  0
   -3.8071  -25.4792   51.0425 N   0  0  0  1  0  0
   -4.7885  -26.1788   51.7015 C   0  0  0  1  0  0
   -4.4907  -27.3082   52.4896 C   0  0  0  1  0  0
   -5.5298  -28.1628   52.8823 C   0  0  0  1  0  0
   -6.8487  -27.8842   52.4775 C   0  0  0  1  0  0
   -7.8908  -28.9644   52.5761 C   0  0  0  1  0  0
   -7.6291  -30.0225   51.4959 C   0  0  0  1  0  0
   -8.5548  -30.4814   50.8686 O   0  0  0  1  0  0
   -6.3651  -30.4169   51.2709 O   0  0  0  1  0  0
   -9.3153  -28.6244   52.9845 C   0  0  0  1  0  0
   -8.4205  -29.3875   53.9352 C   0  0  0  1  0  0
   -7.1640  -26.6357   51.9132 C   0  0  0  1  0  0
   -6.1278  -25.7774   51.5303 C   0  0  0  1  0  0
   -3.1248  -26.1766   49.9083 C   0  0  0  1  0  0
   -1.6725  -25.7468   49.6778 C   0  0  0  1  0  0
    2.0233  -25.2406   46.1994 H   0  0
    0.4352  -25.4484   45.4327 H   0  0
    0.8499  -26.3967   46.8869 H   0  0
   -0.6701  -24.4936   47.3826 H   0  0
    0.0230  -22.9634   45.6130 H   0  0
    1.6110  -22.7556   46.3797 H   0  0
    0.1448  -22.1465   47.1954 H   0  0
    2.9814  -24.5071   47.8121 H   0  0
    4.1500  -24.4869   49.9992 H   0  0
    2.8500  -24.1709   52.0980 H   0  0
    0.3853  -23.9702   52.0124 H   0  0
   -3.2191  -24.6862   48.0879 H   0  0
   -4.9902  -24.5440   46.6469 H   0  0
   -5.3600  -21.1971   44.0795 H   0  0
   -3.3819  -20.1433   45.1604 H   0  0
   -1.7109  -22.7966   51.4440 H   0  0
   -1.3798  -24.4053   52.0344 H   0  0
   -3.9705  -23.3839   50.8252 H   0  0
   -3.6860  -23.9355   52.4802 H   0  0
   -3.4637  -27.5149   52.7905 H   0  0
   -5.3179  -29.0375   53.4972 H   0  0
   -6.0135  -30.7578   52.1997 H   0  0
  -10.0383  -29.2804   52.4996 H   0  0
   -9.4092  -27.5777   53.2740 H   0  0
   -8.0405  -28.7465   54.7307 H   0  0
   -8.6683  -30.4488   53.9554 H   0  0
   -8.2040  -26.3399   51.7756 H   0  0
   -6.3559  -24.8018   51.1011 H   0  0
   -3.1464  -27.2503   50.0948 H   0  0
   -3.6917  -25.9969   48.9948 H   0  0
   -1.3911  -26.0386   48.6660 H   0  0
   -1.0374  -26.3382   50.3373 H   0  0
  1  2  1  0
  2  3  1  0
  2  4  1  0
  4  5  2  0
  4  9  1  0
  5  6  1  0
  6  7  2  0
  7  8  1  0
  8  9  2  0
  9 10  1  0
 10 11  1  0
 10 20  1  0
 10 36  1  0
 11 12  2  0
 11 13  1  0
 13 14  1  0
 14 15  2  0
 14 19  1  0
 15 16  1  0
 16 17  2  0
 17 18  1  0
 18 19  2  0
 20 21  1  0
 21 22  1  0
 22 23  1  0
 22 35  1  0
 23 24  2  0
 23 34  1  0
 24 25  1  0
 25 26  2  0
 26 27  1  0
 26 33  1  0
 27 28  1  0
 27 31  1  0
 27 32  1  0
 28 29  2  0
 28 30  1  0
 31 32  1  0
 33 34  2  0
 35 36  1  0
  1 37  1  0
  1 38  1  0
  1 39  1  0
  2 40  1  0
  3 41  1  0
  3 42  1  0
  3 43  1  0
  5 44  1  0
  6 45  1  0
  7 46  1  0
  8 47  1  0
 13 48  1  0
 15 49  1  0
 17 50  1  0
 18 51  1  0
 20 52  1  0
 20 53  1  0
 21 54  1  0
 21 55  1  0
 24 56  1  0
 25 57  1  0
 30 58  1  0
 31 59  1  0
 31 60  1  0
 32 61  1  0
 32 62  1  0
 33 63  1  0
 34 64  1  0
 35 65  1  0
 35 66  1  0
 36 67  1  0
 36 68  1  0
M  END
> <Name>
Molecule

> <AbsoluteEnergy>
80.0416

> <Clean Energy>
198.799

> <ConfNumber>
102

> <MOL_NUMBER>
8

> <RelativeEnergy>
18.4926

> <POSE_NUMBER>
42

> <LibDockScore>
119.0358

> <HotSpots>
0.87,-24.32,52.78,A,63,7
-4.93,-21.52,45.19,A,11,17
-9.53,-30.12,52.78,A,62,32

$$$$
Molecule
  SciTegic05072616053D

 68 72  0  0  0  0            999 V2000
    2.5413  -25.0306   50.9002 C   0  0  0  1  0  0
    1.6662  -23.9819   50.1847 C   0  0  0  1  0  0
    2.4002  -22.6198   50.1824 C   0  0  0  1  0  0
    1.2155  -24.4860   48.8270 C   0  0  0  1  0  0
    2.1256  -24.3364   47.7496 C   0  0  0  1  0  0
    1.8277  -24.7930   46.4610 C   0  0  0  1  0  0
    0.6107  -25.4265   46.2171 C   0  0  0  1  0  0
   -0.3054  -25.5903   47.2595 C   0  0  0  1  0  0
   -0.0549  -25.1163   48.5738 C   0  0  0  1  0  0
   -1.2005  -25.3789   49.5732 C   0  0  0  1  0  0
   -2.5529  -24.9642   48.9525 C   0  0  0  1  0  0
   -3.4841  -25.7392   48.9809 O   0  0  0  1  0  0
   -2.6905  -23.7040   48.3777 N   0  0  0  1  0  0
   -3.5417  -23.3383   47.3387 C   0  0  0  1  0  0
   -3.4360  -22.0320   46.7922 C   0  0  0  1  0  0
   -4.2478  -21.6167   45.7761 N   0  0  0  1  0  0
   -5.1766  -22.4852   45.2867 C   0  0  0  1  0  0
   -5.2927  -23.7867   45.8125 C   0  0  0  1  0  0
   -4.4794  -24.2001   46.8284 N   0  0  0  1  0  0
   -1.1812  -26.9147   49.9002 C   0  0  0  1  0  0
   -1.7184  -27.3165   51.2937 C   0  0  0  1  0  0
   -2.8034  -26.4057   51.7445 N   0  0  0  1  0  0
   -4.0663  -26.8829   52.0695 C   0  0  0  1  0  0
   -4.2419  -28.2253   52.4781 C   0  0  0  1  0  0
   -5.5204  -28.7162   52.7889 C   0  0  0  1  0  0
   -6.6438  -27.8767   52.6933 C   0  0  0  1  0  0
   -8.0209  -28.4149   53.0114 C   0  0  0  1  0  0
   -8.6454  -29.1885   51.8540 C   0  0  0  1  0  0
   -8.8373  -28.6194   50.8019 O   0  0  0  1  0  0
   -8.9641  -30.4729   52.0254 O   0  0  0  1  0  0
   -8.3058  -28.8708   54.4354 C   0  0  0  1  0  0
   -8.9519  -27.6128   53.9077 C   0  0  0  1  0  0
   -6.4769  -26.5368   52.2942 C   0  0  0  1  0  0
   -5.1990  -26.0422   51.9878 C   0  0  0  1  0  0
   -2.4557  -24.9538   51.7970 C   0  0  0  1  0  0
   -1.1997  -24.6361   50.9467 C   0  0  0  1  0  0
    2.7236  -24.7155   51.9276 H   0  0
    3.4921  -25.1322   50.3770 H   0  0
    2.0263  -25.9913   50.9032 H   0  0
    0.7346  -23.8166   50.7258 H   0  0
    3.3507  -22.7172   49.6579 H   0  0
    2.5823  -22.3005   51.2086 H   0  0
    1.7835  -21.8765   49.6770 H   0  0
    3.0849  -23.8517   47.9307 H   0  0
    2.5443  -24.6538   45.6516 H   0  0
    0.3745  -25.7925   45.2179 H   0  0
   -1.2467  -26.1007   47.0559 H   0  0
   -2.0722  -22.9288   48.7799 H   0  0
   -2.6901  -21.3455   47.1928 H   0  0
   -5.8372  -22.1693   44.4793 H   0  0
   -6.0381  -24.4697   45.4050 H   0  0
   -0.1573  -27.2768   49.8080 H   0  0
   -1.7638  -27.4379   49.1419 H   0  0
   -0.9028  -27.2849   52.0162 H   0  0
   -2.1029  -28.3355   51.2496 H   0  0
   -3.3773  -28.8848   52.5525 H   0  0
   -5.6421  -29.7521   53.1055 H   0  0
   -9.6089  -30.4844   52.8540 H   0  0
   -7.4727  -28.6463   55.1014 H   0  0
   -9.0065  -29.7055   54.4547 H   0  0
   -9.9976  -27.7765   53.6471 H   0  0
   -8.4632  -26.7176   54.2922 H   0  0
   -7.3440  -25.8802   52.2227 H   0  0
   -5.0799  -25.0020   51.6847 H   0  0
   -2.2687  -24.6671   52.8318 H   0  0
   -3.2974  -24.3708   51.4233 H   0  0
   -1.1534  -23.5614   50.7708 H   0  0
   -0.3101  -24.9248   51.5065 H   0  0
  1  2  1  0
  2  3  1  0
  2  4  1  0
  4  5  2  0
  4  9  1  0
  5  6  1  0
  6  7  2  0
  7  8  1  0
  8  9  2  0
  9 10  1  0
 10 11  1  0
 10 20  1  0
 10 36  1  0
 11 12  2  0
 11 13  1  0
 13 14  1  0
 14 15  2  0
 14 19  1  0
 15 16  1  0
 16 17  2  0
 17 18  1  0
 18 19  2  0
 20 21  1  0
 21 22  1  0
 22 23  1  0
 22 35  1  0
 23 24  2  0
 23 34  1  0
 24 25  1  0
 25 26  2  0
 26 27  1  0
 26 33  1  0
 27 28  1  0
 27 31  1  0
 27 32  1  0
 28 29  2  0
 28 30  1  0
 31 32  1  0
 33 34  2  0
 35 36  1  0
  1 37  1  0
  1 38  1  0
  1 39  1  0
  2 40  1  0
  3 41  1  0
  3 42  1  0
  3 43  1  0
  5 44  1  0
  6 45  1  0
  7 46  1  0
  8 47  1  0
 13 48  1  0
 15 49  1  0
 17 50  1  0
 18 51  1  0
 20 52  1  0
 20 53  1  0
 21 54  1  0
 21 55  1  0
 24 56  1  0
 25 57  1  0
 30 58  1  0
 31 59  1  0
 31 60  1  0
 32 61  1  0
 32 62  1  0
 33 63  1  0
 34 64  1  0
 35 65  1  0
 35 66  1  0
 36 67  1  0
 36 68  1  0
M  END
> <Name>
Molecule

> <AbsoluteEnergy>
73.4378

> <Clean Energy>
198.799

> <ConfNumber>
53

> <MOL_NUMBER>
8

> <RelativeEnergy>
11.8888

> <POSE_NUMBER>
43

> <LibDockScore>
118.8927

> <HotSpots>
2.27,-24.92,52.19,A,58,1
-5.13,-22.92,46.19,A,18,17
-8.73,-28.12,54.38,A,70,31

$$$$
Molecule
  SciTegic05072616053D

 68 72  0  0  0  0            999 V2000
   -4.1333  -24.9205   46.9117 C   0  0  0  1  0  0
   -3.4171  -23.9688   47.8893 C   0  0  0  1  0  0
   -3.1228  -22.6092   47.2238 C   0  0  0  1  0  0
   -4.1866  -23.8188   49.1845 C   0  0  0  1  0  0
   -5.4847  -23.2651   49.0914 C   0  0  0  1  0  0
   -6.2920  -23.1081   50.2244 C   0  0  0  1  0  0
   -5.8084  -23.4925   51.4763 C   0  0  0  1  0  0
   -4.5178  -24.0229   51.5942 C   0  0  0  1  0  0
   -3.6772  -24.2148   50.4656 C   0  0  0  1  0  0
   -2.2897  -24.8564   50.6402 C   0  0  0  1  0  0
   -1.1613  -24.0365   49.9819 C   0  0  0  1  0  0
   -1.3660  -22.9465   49.4957 O   0  0  0  1  0  0
    0.1083  -24.5936   49.9810 N   0  0  0  1  0  0
    1.3457  -23.9756   49.9432 C   0  0  0  1  0  0
    2.4910  -24.8027   50.0700 C   0  0  0  1  0  0
    3.7482  -24.2803   50.0525 N   0  0  0  1  0  0
    3.8919  -22.9320   49.9117 C   0  0  0  1  0  0
    2.7609  -22.0961   49.7841 C   0  0  0  1  0  0
    1.4988  -22.6206   49.7991 N   0  0  0  1  0  0
   -2.3622  -26.3137   50.0400 C   0  0  0  1  0  0
   -1.7421  -27.4243   50.9050 C   0  0  0  1  0  0
   -2.3101  -27.3854   52.2712 N   0  0  0  1  0  0
   -2.8254  -28.5011   52.8864 C   0  0  0  1  0  0
   -3.4722  -29.4964   52.1302 C   0  0  0  1  0  0
   -4.1808  -30.5141   52.7856 C   0  0  0  1  0  0
   -4.2395  -30.5348   54.1905 C   0  0  0  1  0  0
   -5.1879  -31.4666   54.8873 C   0  0  0  1  0  0
   -6.5999  -30.9048   54.7585 C   0  0  0  1  0  0
   -7.1750  -31.0067   53.6978 O   0  0  0  1  0  0
   -7.1658  -30.2747   55.7856 O   0  0  0  1  0  0
   -4.7626  -32.2145   56.1426 C   0  0  0  1  0  0
   -4.9692  -32.9719   54.8506 C   0  0  0  1  0  0
   -3.4483  -29.6464   54.9401 C   0  0  0  1  0  0
   -2.7390  -28.6317   54.2863 C   0  0  0  1  0  0
   -2.3810  -26.0839   52.9830 C   0  0  0  1  0  0
   -1.8171  -24.9290   52.1457 C   0  0  0  1  0  0
   -3.4975  -25.0719   46.0394 H   0  0
   -5.0690  -24.4599   46.5948 H   0  0
   -4.3345  -25.8762   47.3957 H   0  0
   -2.4566  -24.4147   48.1478 H   0  0
   -4.0647  -22.1628   46.9050 H   0  0
   -2.4932  -22.7748   46.3495 H   0  0
   -2.6166  -21.9474   47.9266 H   0  0
   -5.8642  -22.9544   48.1180 H   0  0
   -7.2932  -22.6878   50.1295 H   0  0
   -6.4348  -23.3799   52.3612 H   0  0
   -4.1471  -24.2968   52.5820 H   0  0
    0.1353  -25.6627   50.0146 H   0  0
    2.3619  -25.8790   50.1838 H   0  0
    4.8902  -22.4946   49.8975 H   0  0
    2.8959  -21.0203   49.6724 H   0  0
   -1.8669  -26.3156   49.0690 H   0  0
   -3.4075  -26.5622   49.8564 H   0  0
   -0.6628  -27.2820   50.9590 H   0  0
   -1.9527  -28.3941   50.4542 H   0  0
   -3.4228  -29.4765   51.0415 H   0  0
   -4.6852  -31.2878   52.2068 H   0  0
   -6.4933  -29.5048   56.0255 H   0  0
   -5.5986  -32.3536   56.8281 H   0  0
   -3.7042  -32.0661   56.3568 H   0  0
   -4.0206  -33.2271   54.3783 H   0  0
   -5.9153  -33.5132   54.8488 H   0  0
   -3.3875  -29.7471   56.0237 H   0  0
   -2.1198  -27.9426   54.8607 H   0  0
   -1.8186  -26.1557   53.9140 H   0  0
   -3.4209  -25.8698   53.2296 H   0  0
   -2.0773  -23.9911   52.6363 H   0  0
   -0.7291  -24.9916   52.1638 H   0  0
  1  2  1  0
  2  3  1  0
  2  4  1  0
  4  5  2  0
  4  9  1  0
  5  6  1  0
  6  7  2  0
  7  8  1  0
  8  9  2  0
  9 10  1  0
 10 11  1  0
 10 20  1  0
 10 36  1  0
 11 12  2  0
 11 13  1  0
 13 14  1  0
 14 15  2  0
 14 19  1  0
 15 16  1  0
 16 17  2  0
 17 18  1  0
 18 19  2  0
 20 21  1  0
 21 22  1  0
 22 23  1  0
 22 35  1  0
 23 24  2  0
 23 34  1  0
 24 25  1  0
 25 26  2  0
 26 27  1  0
 26 33  1  0
 27 28  1  0
 27 31  1  0
 27 32  1  0
 28 29  2  0
 28 30  1  0
 31 32  1  0
 33 34  2  0
 35 36  1  0
  1 37  1  0
  1 38  1  0
  1 39  1  0
  2 40  1  0
  3 41  1  0
  3 42  1  0
  3 43  1  0
  5 44  1  0
  6 45  1  0
  7 46  1  0
  8 47  1  0
 13 48  1  0
 15 49  1  0
 17 50  1  0
 18 51  1  0
 20 52  1  0
 20 53  1  0
 21 54  1  0
 21 55  1  0
 24 56  1  0
 25 57  1  0
 30 58  1  0
 31 59  1  0
 31 60  1  0
 32 61  1  0
 32 62  1  0
 33 63  1  0
 34 64  1  0
 35 65  1  0
 35 66  1  0
 36 67  1  0
 36 68  1  0
M  END
> <Name>
Molecule

> <AbsoluteEnergy>
74.537

> <Clean Energy>
198.799

> <ConfNumber>
61

> <MOL_NUMBER>
8

> <RelativeEnergy>
12.988

> <POSE_NUMBER>
44

> <LibDockScore>
118.7813

> <HotSpots>
-5.13,-23.32,51.38,A,54,7
3.07,-24.52,50.38,A,43,15
-4.33,-32.92,55.19,A,75,31

$$$$
Molecule
  SciTegic05072616053D

 68 72  0  0  0  0            999 V2000
   -9.8164  -29.9197   51.0781 C   0  0  0  1  0  0
   -8.8698  -30.7115   52.0018 C   0  0  0  1  0  0
   -9.3256  -32.1876   52.0838 C   0  0  0  1  0  0
   -8.7088  -30.0130   53.3370 C   0  0  0  1  0  0
   -9.7884  -30.1554   54.2447 C   0  0  0  1  0  0
   -9.7678  -29.5767   55.5169 C   0  0  0  1  0  0
   -8.6655  -28.8240   55.9127 C   0  0  0  1  0  0
   -7.5938  -28.6501   55.0327 C   0  0  0  1  0  0
   -7.5682  -29.2217   53.7324 C   0  0  0  1  0  0
   -6.2991  -28.8876   52.9196 C   0  0  0  1  0  0
   -6.5547  -27.5660   52.1689 C   0  0  0  1  0  0
   -7.4281  -27.5482   51.3294 O   0  0  0  1  0  0
   -5.8039  -26.4261   52.4212 N   0  0  0  1  0  0
   -5.9039  -25.2009   51.7770 C   0  0  0  1  0  0
   -6.8146  -24.9664   50.7117 C   0  0  0  1  0  0
   -6.8812  -23.7515   50.0942 N   0  0  0  1  0  0
   -6.0446  -22.7594   50.5084 C   0  0  0  1  0  0
   -5.1274  -22.9820   51.5544 C   0  0  0  1  0  0
   -5.0656  -24.1934   52.1763 N   0  0  0  1  0  0
   -5.8277  -29.8853   51.8088 C   0  0  0  1  0  0
   -4.6206  -29.3774   50.9775 C   0  0  0  1  0  0
   -3.7174  -28.5158   51.7887 N   0  0  0  1  0  0
   -3.0367  -27.4356   51.2363 C   0  0  0  1  0  0
   -2.3947  -26.4829   52.0598 C   0  0  0  1  0  0
   -1.7334  -25.3794   51.4992 C   0  0  0  1  0  0
   -1.6906  -25.2104   50.1040 C   0  0  0  1  0  0
   -0.9822  -24.0165   49.5033 C   0  0  0  1  0  0
   -1.9259  -22.8720   49.1401 C   0  0  0  1  0  0
   -2.1182  -22.6149   47.9734 O   0  0  0  1  0  0
   -2.5222  -22.1711   50.1070 O   0  0  0  1  0  0
    0.4112  -23.6482   49.9904 C   0  0  0  1  0  0
    0.2357  -24.2700   48.6267 C   0  0  0  1  0  0
   -2.3180  -26.1561   49.2732 C   0  0  0  1  0  0
   -2.9867  -27.2578   49.8347 C   0  0  0  1  0  0
   -3.6573  -28.8725   53.2303 C   0  0  0  1  0  0
   -5.0575  -28.8567   53.8930 C   0  0  0  1  0  0
  -10.8301  -29.9652   51.4761 H   0  0
   -9.8000  -30.3607   50.0814 H   0  0
   -9.4921  -28.8805   51.0229 H   0  0
   -7.8641  -30.7371   51.5822 H   0  0
   -9.3098  -32.6259   51.0859 H   0  0
  -10.3399  -32.2303   52.4806 H   0  0
   -8.6540  -32.7440   52.7376 H   0  0
  -10.6611  -30.7337   53.9413 H   0  0
  -10.6099  -29.7139   56.1952 H   0  0
   -8.6385  -28.3724   56.9044 H   0  0
   -6.7428  -28.0514   55.3573 H   0  0
   -5.0691  -26.4999   53.1955 H   0  0
   -7.4716  -25.7713   50.3820 H   0  0
   -6.0852  -21.7831   50.0255 H   0  0
   -4.4614  -22.1785   51.8691 H   0  0
   -6.6608  -30.0813   51.1338 H   0  0
   -5.5578  -30.8318   52.2772 H   0  0
   -4.0574  -30.2327   50.6043 H   0  0
   -4.9868  -28.8062   50.1244 H   0  0
   -2.4135  -26.6068   53.1426 H   0  0
   -1.2504  -24.6494   52.1488 H   0  0
   -1.7342  -21.8121   50.7008 H   0  0
    0.7849  -24.3700   50.7167 H   0  0
    0.5868  -22.5745   49.9237 H   0  0
    0.3182  -23.5281   47.8325 H   0  0
    0.5146  -25.3237   48.6258 H   0  0
   -2.2856  -26.0344   48.1905 H   0  0
   -3.4722  -27.9833   49.1819 H   0  0
   -3.0104  -28.1635   53.7470 H   0  0
   -3.2253  -29.8679   53.3333 H   0  0
   -5.1265  -29.7091   54.5688 H   0  0
   -5.1311  -27.9667   54.5179 H   0  0
  1  2  1  0
  2  3  1  0
  2  4  1  0
  4  5  2  0
  4  9  1  0
  5  6  1  0
  6  7  2  0
  7  8  1  0
  8  9  2  0
  9 10  1  0
 10 11  1  0
 10 20  1  0
 10 36  1  0
 11 12  2  0
 11 13  1  0
 13 14  1  0
 14 15  2  0
 14 19  1  0
 15 16  1  0
 16 17  2  0
 17 18  1  0
 18 19  2  0
 20 21  1  0
 21 22  1  0
 22 23  1  0
 22 35  1  0
 23 24  2  0
 23 34  1  0
 24 25  1  0
 25 26  2  0
 26 27  1  0
 26 33  1  0
 27 28  1  0
 27 31  1  0
 27 32  1  0
 28 29  2  0
 28 30  1  0
 31 32  1  0
 33 34  2  0
 35 36  1  0
  1 37  1  0
  1 38  1  0
  1 39  1  0
  2 40  1  0
  3 41  1  0
  3 42  1  0
  3 43  1  0
  5 44  1  0
  6 45  1  0
  7 46  1  0
  8 47  1  0
 13 48  1  0
 15 49  1  0
 17 50  1  0
 18 51  1  0
 20 52  1  0
 20 53  1  0
 21 54  1  0
 21 55  1  0
 24 56  1  0
 25 57  1  0
 30 58  1  0
 31 59  1  0
 31 60  1  0
 32 61  1  0
 32 62  1  0
 33 63  1  0
 34 64  1  0
 35 65  1  0
 35 66  1  0
 36 67  1  0
 36 68  1  0
M  END
> <Name>
Molecule

> <AbsoluteEnergy>
76.3216

> <Clean Energy>
198.799

> <ConfNumber>
74

> <MOL_NUMBER>
8

> <RelativeEnergy>
14.7726

> <POSE_NUMBER>
45

> <LibDockScore>
118.404

> <HotSpots>
-8.53,-31.32,51.19,A,51,1
-5.13,-23.32,51.38,A,54,18
0.27,-24.92,46.38,A,19,32

$$$$
Molecule
  SciTegic05072616053D

 68 72  0  0  0  0            999 V2000
   -5.1717  -24.6197   46.6611 C   0  0  0  1  0  0
   -4.2724  -23.9138   47.6942 C   0  0  0  1  0  0
   -4.0022  -22.4513   47.2865 C   0  0  0  1  0  0
   -4.8400  -24.0235   49.0936 C   0  0  0  1  0  0
   -6.1334  -23.4890   49.2979 C   0  0  0  1  0  0
   -6.7623  -23.5624   50.5466 C   0  0  0  1  0  0
   -6.1011  -24.1633   51.6193 C   0  0  0  1  0  0
   -4.8113  -24.6797   51.4444 C   0  0  0  1  0  0
   -4.1490  -24.6408   50.1886 C   0  0  0  1  0  0
   -2.7558  -25.2750   50.0337 C   0  0  0  1  0  0
   -1.8460  -24.4970   49.0613 C   0  0  0  1  0  0
   -1.7600  -23.2896   49.0971 O   0  0  0  1  0  0
   -1.1145  -25.2398   48.1473 N   0  0  0  1  0  0
   -0.0336  -24.8677   47.3677 C   0  0  0  1  0  0
    0.7217  -25.9052   46.7637 C   0  0  0  1  0  0
    1.8066  -25.6327   45.9874 N   0  0  0  1  0  0
    2.1625  -24.3303   45.7987 C   0  0  0  1  0  0
    1.4198  -23.2868   46.3935 C   0  0  0  1  0  0
    0.3292  -23.5600   47.1707 N   0  0  0  1  0  0
   -2.9632  -26.7640   49.5550 C   0  0  0  1  0  0
   -2.1271  -27.8251   50.2907 C   0  0  0  1  0  0
   -2.3231  -27.7068   51.7529 N   0  0  0  1  0  0
   -2.6482  -28.7842   52.5417 C   0  0  0  1  0  0
   -3.3776  -29.8631   52.0081 C   0  0  0  1  0  0
   -3.8892  -30.8465   52.8673 C   0  0  0  1  0  0
   -3.6699  -30.7499   54.2530 C   0  0  0  1  0  0
   -4.4127  -31.6531   55.1942 C   0  0  0  1  0  0
   -4.9776  -30.8076   56.3309 C   0  0  0  1  0  0
   -6.0005  -30.1868   56.1449 O   0  0  0  1  0  0
   -4.3272  -30.7231   57.4893 O   0  0  0  1  0  0
   -3.9333  -33.0746   55.4497 C   0  0  0  1  0  0
   -5.2075  -32.8402   54.6707 C   0  0  0  1  0  0
   -2.7948  -29.7728   54.7596 C   0  0  0  1  0  0
   -2.2820  -28.7921   53.9019 C   0  0  0  1  0  0
   -2.2234  -26.3666   52.3851 C   0  0  0  1  0  0
   -1.9093  -25.2628   51.3674 C   0  0  0  1  0  0
   -4.6762  -24.5976   45.6905 H   0  0
   -6.1164  -24.0806   46.5909 H   0  0
   -5.3537  -25.6513   46.9624 H   0  0
   -3.3107  -24.4268   47.7072 H   0  0
   -4.9541  -21.9255   47.2125 H   0  0
   -3.5139  -22.4426   46.3121 H   0  0
   -3.3655  -21.9656   48.0260 H   0  0
   -6.6509  -23.0103   48.4666 H   0  0
   -7.7633  -23.1524   50.6806 H   0  0
   -6.5884  -24.2304   52.5920 H   0  0
   -4.3001  -25.1250   52.2979 H   0  0
   -1.4340  -26.2538   48.0266 H   0  0
    0.4275  -26.9424   46.9243 H   0  0
    3.0293  -24.0919   45.1823 H   0  0
    1.7198  -22.2516   46.2309 H   0  0
   -2.7357  -26.8227   48.4906 H   0  0
   -4.0173  -27.0198   49.6623 H   0  0
   -1.0723  -27.6828   50.0556 H   0  0
   -2.4352  -28.8185   49.9645 H   0  0
   -3.5440  -29.9340   50.9332 H   0  0
   -4.4560  -31.6845   52.4616 H   0  0
   -3.3690  -30.3814   57.2293 H   0  0
   -4.1398  -33.3887   56.4728 H   0  0
   -3.1043  -33.3406   54.7939 H   0  0
   -5.0563  -32.9826   53.6007 H   0  0
   -6.0915  -33.0290   55.2798 H   0  0
   -2.5173  -29.7788   55.8137 H   0  0
   -1.5993  -28.0346   54.2868 H   0  0
   -1.4386  -26.3867   53.1413 H   0  0
   -3.1667  -26.1360   52.8801 H   0  0
   -2.0454  -24.2978   51.8555 H   0  0
   -0.8528  -25.3270   51.1069 H   0  0
  1  2  1  0
  2  3  1  0
  2  4  1  0
  4  5  2  0
  4  9  1  0
  5  6  1  0
  6  7  2  0
  7  8  1  0
  8  9  2  0
  9 10  1  0
 10 11  1  0
 10 20  1  0
 10 36  1  0
 11 12  2  0
 11 13  1  0
 13 14  1  0
 14 15  2  0
 14 19  1  0
 15 16  1  0
 16 17  2  0
 17 18  1  0
 18 19  2  0
 20 21  1  0
 21 22  1  0
 22 23  1  0
 22 35  1  0
 23 24  2  0
 23 34  1  0
 24 25  1  0
 25 26  2  0
 26 27  1  0
 26 33  1  0
 27 28  1  0
 27 31  1  0
 27 32  1  0
 28 29  2  0
 28 30  1  0
 31 32  1  0
 33 34  2  0
 35 36  1  0
  1 37  1  0
  1 38  1  0
  1 39  1  0
  2 40  1  0
  3 41  1  0
  3 42  1  0
  3 43  1  0
  5 44  1  0
  6 45  1  0
  7 46  1  0
  8 47  1  0
 13 48  1  0
 15 49  1  0
 17 50  1  0
 18 51  1  0
 20 52  1  0
 20 53  1  0
 21 54  1  0
 21 55  1  0
 24 56  1  0
 25 57  1  0
 30 58  1  0
 31 59  1  0
 31 60  1  0
 32 61  1  0
 32 62  1  0
 33 63  1  0
 34 64  1  0
 35 65  1  0
 35 66  1  0
 36 67  1  0
 36 68  1  0
M  END
> <Name>
Molecule

> <AbsoluteEnergy>
74.537

> <Clean Energy>
198.799

> <ConfNumber>
61

> <MOL_NUMBER>
8

> <RelativeEnergy>
12.988

> <POSE_NUMBER>
46

> <LibDockScore>
118.397

> <HotSpots>
-6.53,-23.32,50.38,A,45,6
2.67,-25.52,46.78,P,25,16
-4.33,-32.92,55.19,A,75,31

$$$$
Molecule
  SciTegic05072616053D

 68 72  0  0  0  0            999 V2000
    0.8994  -23.8682   53.7386 C   0  0  0  1  0  0
    1.0399  -25.0363   52.7375 C   0  0  0  1  0  0
    2.0439  -26.0836   53.2566 C   0  0  0  1  0  0
    1.3911  -24.5819   51.3378 C   0  0  0  1  0  0
    2.7412  -24.2043   51.1427 C   0  0  0  1  0  0
    3.1922  -23.6876   49.9262 C   0  0  0  1  0  0
    2.2966  -23.5391   48.8696 C   0  0  0  1  0  0
    0.9626  -23.9345   49.0248 C   0  0  0  1  0  0
    0.4711  -24.5098   50.2305 C   0  0  0  1  0  0
   -0.9936  -25.0029   50.2530 C   0  0  0  1  0  0
   -1.7658  -24.5899   48.9772 C   0  0  0  1  0  0
   -2.3025  -23.5050   48.9327 O   0  0  0  1  0  0
   -1.8489  -25.4560   47.8908 N   0  0  0  1  0  0
   -2.8606  -25.5089   46.9380 C   0  0  0  1  0  0
   -2.8525  -26.5531   45.9777 C   0  0  0  1  0  0
   -3.8278  -26.6523   45.0281 N   0  0  0  1  0  0
   -4.8256  -25.7239   45.0134 C   0  0  0  1  0  0
   -4.8502  -24.6833   45.9632 C   0  0  0  1  0  0
   -3.8748  -24.5840   46.9077 N   0  0  0  1  0  0
   -1.7542  -24.4085   51.4708 C   0  0  0  1  0  0
   -3.2327  -24.8537   51.5903 C   0  0  0  1  0  0
   -3.5239  -26.2849   51.2337 N   0  0  0  1  0  0
   -4.6904  -26.8839   51.7074 C   0  0  0  1  0  0
   -5.8471  -26.0984   51.9260 C   0  0  0  1  0  0
   -7.0377  -26.6834   52.3862 C   0  0  0  1  0  0
   -7.0948  -28.0642   52.6455 C   0  0  0  1  0  0
   -8.3768  -28.6942   53.1372 C   0  0  0  1  0  0
   -9.1465  -29.3999   52.0304 C   0  0  0  1  0  0
   -9.6100  -30.4986   52.2373 O   0  0  0  1  0  0
   -9.2903  -28.7885   50.8555 O   0  0  0  1  0  0
   -9.1789  -28.0145   54.2378 C   0  0  0  1  0  0
   -8.4160  -29.2806   54.5410 C   0  0  0  1  0  0
   -5.9511  -28.8546   52.4368 C   0  0  0  1  0  0
   -4.7599  -28.2706   51.9748 C   0  0  0  1  0  0
   -2.5990  -27.0324   50.3181 C   0  0  0  1  0  0
   -1.1395  -26.5509   50.3746 C   0  0  0  1  0  0
    1.8745  -23.4009   53.8760 H   0  0
    0.5537  -24.2613   54.6946 H   0  0
    0.1873  -23.1347   53.3606 H   0  0
    0.0577  -25.5032   52.6634 H   0  0
    1.6925  -26.4658   54.2150 H   0  0
    3.0133  -25.6053   53.3964 H   0  0
    2.1343  -26.9020   52.5423 H   0  0
    3.4481  -24.3200   51.9643 H   0  0
    4.2372  -23.4026   49.8044 H   0  0
    2.6339  -23.1157   47.9235 H   0  0
    0.2743  -23.7966   48.1909 H   0  0
   -1.0482  -26.1565   47.7764 H   0  0
   -2.0509  -27.2914   45.9987 H   0  0
   -5.6113  -25.7869   44.2605 H   0  0
   -5.6575  -23.9512   45.9415 H   0  0
   -1.7216  -23.3208   51.4078 H   0  0
   -1.2296  -24.6921   52.3832 H   0  0
   -3.8414  -24.2107   50.9546 H   0  0
   -3.5650  -24.6801   52.6138 H   0  0
   -5.8133  -25.0258   51.7347 H   0  0
   -7.9212  -26.0647   52.5431 H   0  0
   -8.3131  -28.5778   50.5344 H   0  0
  -10.2468  -28.2042   54.1297 H   0  0
   -8.6645  -27.1330   54.6205 H   0  0
   -7.4950  -29.0747   55.0863 H   0  0
   -9.0767  -30.1459   54.5940 H   0  0
   -5.9888  -29.9259   52.6344 H   0  0
   -3.8789  -28.8937   51.8207 H   0  0
   -2.6300  -28.0910   50.5758 H   0  0
   -2.9617  -26.9345   49.2949 H   0  0
   -0.5810  -27.0233   49.5665 H   0  0
   -0.6977  -26.8758   51.3166 H   0  0
  1  2  1  0
  2  3  1  0
  2  4  1  0
  4  5  2  0
  4  9  1  0
  5  6  1  0
  6  7  2  0
  7  8  1  0
  8  9  2  0
  9 10  1  0
 10 11  1  0
 10 20  1  0
 10 36  1  0
 11 12  2  0
 11 13  1  0
 13 14  1  0
 14 15  2  0
 14 19  1  0
 15 16  1  0
 16 17  2  0
 17 18  1  0
 18 19  2  0
 20 21  1  0
 21 22  1  0
 22 23  1  0
 22 35  1  0
 23 24  2  0
 23 34  1  0
 24 25  1  0
 25 26  2  0
 26 27  1  0
 26 33  1  0
 27 28  1  0
 27 31  1  0
 27 32  1  0
 28 29  2  0
 28 30  1  0
 31 32  1  0
 33 34  2  0
 35 36  1  0
  1 37  1  0
  1 38  1  0
  1 39  1  0
  2 40  1  0
  3 41  1  0
  3 42  1  0
  3 43  1  0
  5 44  1  0
  6 45  1  0
  7 46  1  0
  8 47  1  0
 13 48  1  0
 15 49  1  0
 17 50  1  0
 18 51  1  0
 20 52  1  0
 20 53  1  0
 21 54  1  0
 21 55  1  0
 24 56  1  0
 25 57  1  0
 30 58  1  0
 31 59  1  0
 31 60  1  0
 32 61  1  0
 32 62  1  0
 33 63  1  0
 34 64  1  0
 35 65  1  0
 35 66  1  0
 36 67  1  0
 36 68  1  0
M  END
> <Name>
Molecule

> <AbsoluteEnergy>
69.3418

> <Clean Energy>
198.799

> <ConfNumber>
25

> <MOL_NUMBER>
8

> <RelativeEnergy>
7.79283

> <POSE_NUMBER>
47

> <LibDockScore>
117.6083

> <HotSpots>
2.67,-23.92,48.98,A,32,6
-4.33,-26.12,45.19,A,10,18
-6.33,-26.32,51.98,A,57,24

$$$$
Molecule
  SciTegic05072616053D

 68 72  0  0  0  0            999 V2000
    2.1873  -22.8388   49.8571 C   0  0  0  1  0  0
    1.2163  -24.0278   50.0479 C   0  0  0  1  0  0
    1.9087  -25.1223   50.8849 C   0  0  0  1  0  0
    0.6305  -24.6048   48.7723 C   0  0  0  1  0  0
    1.3138  -24.3110   47.5644 C   0  0  0  1  0  0
    0.8793  -24.8021   46.3292 C   0  0  0  1  0  0
   -0.2491  -25.6191   46.2685 C   0  0  0  1  0  0
   -0.9396  -25.9329   47.4422 C   0  0  0  1  0  0
   -0.5479  -25.4367   48.7158 C   0  0  0  1  0  0
   -1.4451  -25.8942   49.8836 C   0  0  0  1  0  0
   -2.9140  -25.4894   49.6288 C   0  0  0  1  0  0
   -3.7421  -26.3541   49.4353 O   0  0  0  1  0  0
   -3.2897  -24.1506   49.6319 N   0  0  0  1  0  0
   -4.5765  -23.6656   49.8485 C   0  0  0  1  0  0
   -4.8759  -22.3082   49.5626 C   0  0  0  1  0  0
   -6.1235  -21.7977   49.7814 N   0  0  0  1  0  0
   -7.0892  -22.6183   50.2867 C   0  0  0  1  0  0
   -6.8054  -23.9678   50.5777 C   0  0  0  1  0  0
   -5.5618  -24.4743   50.3572 N   0  0  0  1  0  0
   -1.1525  -25.3663   51.3272 C   0  0  0  1  0  0
   -2.1896  -25.8431   52.3833 C   0  0  0  1  0  0
   -2.7223  -27.2071   52.0578 N   0  0  0  1  0  0
   -4.0423  -27.6124   52.2959 C   0  0  0  1  0  0
   -4.3975  -28.9825   52.2963 C   0  0  0  1  0  0
   -5.7402  -29.3817   52.4015 C   0  0  0  1  0  0
   -6.7604  -28.4252   52.5408 C   0  0  0  1  0  0
   -8.2104  -28.8573   52.5626 C   0  0  0  1  0  0
   -8.9024  -28.7069   53.9159 C   0  0  0  1  0  0
   -9.2831  -27.6196   54.2824 O   0  0  0  1  0  0
   -9.0975  -29.7838   54.6770 O   0  0  0  1  0  0
   -9.0485  -28.7199   51.2985 C   0  0  0  1  0  0
   -8.5714  -30.0822   51.7350 C   0  0  0  1  0  0
   -6.4159  -27.0663   52.6376 C   0  0  0  1  0  0
   -5.0761  -26.6660   52.5160 C   0  0  0  1  0  0
   -1.7239  -28.0663   51.3554 C   0  0  0  1  0  0
   -1.3297  -27.4552   49.9855 C   0  0  0  1  0  0
    3.0840  -23.1785   49.3388 H   0  0
    2.4622  -22.4314   50.8300 H   0  0
    1.6999  -22.0638   49.2656 H   0  0
    0.3513  -23.6254   50.5752 H   0  0
    2.1832  -24.7186   51.8595 H   0  0
    2.8050  -25.4657   50.3682 H   0  0
    1.2262  -25.9613   51.0206 H   0  0
    2.2044  -23.6835   47.6001 H   0  0
    1.4203  -24.5474   45.4179 H   0  0
   -0.5908  -26.0110   45.3105 H   0  0
   -1.8121  -26.5831   47.3789 H   0  0
   -2.5209  -23.4285   49.4517 H   0  0
   -4.0959  -21.6613   49.1611 H   0  0
   -8.0902  -22.2263   50.4671 H   0  0
   -7.5875  -24.6103   50.9822 H   0  0
   -1.1425  -24.2765   51.3106 H   0  0
   -0.1607  -25.7008   51.6314 H   0  0
   -1.7156  -25.8698   53.3645 H   0  0
   -3.0180  -25.1356   52.4184 H   0  0
   -3.6174  -29.7393   52.2137 H   0  0
   -5.9928  -30.4417   52.3749 H   0  0
   -8.1416  -30.1985   54.8067 H   0  0
   -8.4582  -28.3336   50.4676 H   0  0
  -10.1021  -28.5678   51.5329 H   0  0
   -9.3706  -30.6584   52.2012 H   0  0
   -7.7262  -30.4236   51.1374 H   0  0
   -7.1921  -26.3202   52.8078 H   0  0
   -4.8251  -25.6080   52.5921 H   0  0
   -2.1494  -29.0573   51.1973 H   0  0
   -0.8328  -28.1621   51.9757 H   0  0
   -0.3032  -27.7444   49.7601 H   0  0
   -1.9571  -27.9013   49.2139 H   0  0
  1  2  1  0
  2  3  1  0
  2  4  1  0
  4  5  2  0
  4  9  1  0
  5  6  1  0
  6  7  2  0
  7  8  1  0
  8  9  2  0
  9 10  1  0
 10 11  1  0
 10 20  1  0
 10 36  1  0
 11 12  2  0
 11 13  1  0
 13 14  1  0
 14 15  2  0
 14 19  1  0
 15 16  1  0
 16 17  2  0
 17 18  1  0
 18 19  2  0
 20 21  1  0
 21 22  1  0
 22 23  1  0
 22 35  1  0
 23 24  2  0
 23 34  1  0
 24 25  1  0
 25 26  2  0
 26 27  1  0
 26 33  1  0
 27 28  1  0
 27 31  1  0
 27 32  1  0
 28 29  2  0
 28 30  1  0
 31 32  1  0
 33 34  2  0
 35 36  1  0
  1 37  1  0
  1 38  1  0
  1 39  1  0
  2 40  1  0
  3 41  1  0
  3 42  1  0
  3 43  1  0
  5 44  1  0
  6 45  1  0
  7 46  1  0
  8 47  1  0
 13 48  1  0
 15 49  1  0
 17 50  1  0
 18 51  1  0
 20 52  1  0
 20 53  1  0
 21 54  1  0
 21 55  1  0
 24 56  1  0
 25 57  1  0
 30 58  1  0
 31 59  1  0
 31 60  1  0
 32 61  1  0
 32 62  1  0
 33 63  1  0
 34 64  1  0
 35 65  1  0
 35 66  1  0
 36 67  1  0
 36 68  1  0
M  END
> <Name>
Molecule

> <AbsoluteEnergy>
75.5871

> <Clean Energy>
198.799

> <ConfNumber>
69

> <MOL_NUMBER>
8

> <RelativeEnergy>
14.0381

> <POSE_NUMBER>
48

> <LibDockScore>
116.9755

> <HotSpots>
3.07,-24.52,50.38,A,43,3
-4.73,-22.32,50.38,A,46,15
-6.53,-30.72,51.78,A,56,32

$$$$
Molecule
  SciTegic05072616053D

 68 72  0  0  0  0            999 V2000
   -9.0769  -28.8810   50.4346 C   0  0  0  1  0  0
   -9.0235  -30.1555   51.2917 C   0  0  0  1  0  0
   -8.1464  -31.2677   50.6863 C   0  0  0  1  0  0
   -8.8857  -30.0083   52.8048 C   0  0  0  1  0  0
   -9.9838  -30.5375   53.5280 C   0  0  0  1  0  0
  -10.0519  -30.4945   54.9239 C   0  0  0  1  0  0
   -9.0067  -29.9180   55.6451 C   0  0  0  1  0  0
   -7.9039  -29.3919   54.9664 C   0  0  0  1  0  0
   -7.7946  -29.4156   53.5448 C   0  0  0  1  0  0
   -6.5296  -28.8057   52.9041 C   0  0  0  1  0  0
   -6.8166  -27.3549   52.4704 C   0  0  0  1  0  0
   -7.8367  -26.8272   52.8568 O   0  0  0  1  0  0
   -5.9287  -26.6519   51.6651 N   0  0  0  1  0  0
   -6.0883  -25.3832   51.1269 C   0  0  0  1  0  0
   -4.9323  -24.5812   50.9319 C   0  0  0  1  0  0
   -5.0216  -23.3159   50.4341 N   0  0  0  1  0  0
   -6.2497  -22.8334   50.0943 C   0  0  0  1  0  0
   -7.4072  -23.6196   50.2730 C   0  0  0  1  0  0
   -7.3179  -24.8818   50.7892 N   0  0  0  1  0  0
   -5.9773  -29.7904   51.8018 C   0  0  0  1  0  0
   -4.4446  -30.0100   51.7960 C   0  0  0  1  0  0
   -3.7441  -28.7120   51.9805 N   0  0  0  1  0  0
   -2.9855  -28.0764   50.9903 C   0  0  0  1  0  0
   -2.5186  -26.7514   51.1777 C   0  0  0  1  0  0
   -1.8150  -26.0796   50.1655 C   0  0  0  1  0  0
   -1.5223  -26.7260   48.9535 C   0  0  0  1  0  0
   -0.7496  -26.0009   47.8725 C   0  0  0  1  0  0
   -1.4320  -25.9786   46.4997 C   0  0  0  1  0  0
   -0.7801  -25.6392   45.5322 O   0  0  0  1  0  0
   -2.7215  -26.3168   46.3659 O   0  0  0  1  0  0
    0.7709  -26.0845   47.9295 C   0  0  0  1  0  0
    0.0821  -24.7811   48.2507 C   0  0  0  1  0  0
   -1.9600  -28.0483   48.7557 C   0  0  0  1  0  0
   -2.6857  -28.7130   49.7596 C   0  0  0  1  0  0
   -4.0186  -28.0868   53.3083 C   0  0  0  1  0  0
   -5.3427  -28.6126   53.9248 C   0  0  0  1  0  0
   -9.4616  -29.1579   49.4530 H   0  0
   -8.0557  -28.5188   50.3157 H   0  0
   -9.7059  -28.1193   50.8953 H   0  0
  -10.0579  -30.4927   51.2246 H   0  0
   -7.1405  -30.8663   50.5633 H   0  0
   -8.5464  -31.5054   49.7006 H   0  0
   -8.1340  -32.1531   51.3220 H   0  0
  -10.8050  -30.9946   52.9759 H   0  0
  -10.9154  -30.9085   55.4445 H   0  0
   -9.0496  -29.8779   56.7335 H   0  0
   -7.0959  -28.9461   55.5464 H   0  0
   -5.0106  -27.1494   51.4318 H   0  0
   -3.9529  -24.9866   51.1859 H   0  0
   -6.3387  -21.8292   49.6800 H   0  0
   -8.3816  -23.2167   49.9969 H   0  0
   -6.4638  -30.7579   51.9260 H   0  0
   -6.2757  -29.4179   50.8219 H   0  0
   -4.1724  -30.6859   52.6067 H   0  0
   -4.1444  -30.4504   50.8452 H   0  0
   -2.7091  -26.2452   52.1241 H   0  0
   -1.4938  -25.0497   50.3213 H   0  0
   -3.2253  -25.6769   47.0286 H   0  0
    1.2094  -26.0730   46.9316 H   0  0
    1.1088  -26.5945   48.8316 H   0  0
    0.0529  -24.5949   49.3243 H   0  0
    0.1520  -24.0741   47.4240 H   0  0
   -1.7354  -28.5598   47.8197 H   0  0
   -3.0236  -29.7351   49.5888 H   0  0
   -3.1948  -28.3105   53.9861 H   0  0
   -4.0845  -27.0054   53.1887 H   0  0
   -5.6619  -27.9202   54.7037 H   0  0
   -5.1431  -29.5663   54.4134 H   0  0
  1  2  1  0
  2  3  1  0
  2  4  1  0
  4  5  2  0
  4  9  1  0
  5  6  1  0
  6  7  2  0
  7  8  1  0
  8  9  2  0
  9 10  1  0
 10 11  1  0
 10 20  1  0
 10 36  1  0
 11 12  2  0
 11 13  1  0
 13 14  1  0
 14 15  2  0
 14 19  1  0
 15 16  1  0
 16 17  2  0
 17 18  1  0
 18 19  2  0
 20 21  1  0
 21 22  1  0
 22 23  1  0
 22 35  1  0
 23 24  2  0
 23 34  1  0
 24 25  1  0
 25 26  2  0
 26 27  1  0
 26 33  1  0
 27 28  1  0
 27 31  1  0
 27 32  1  0
 28 29  2  0
 28 30  1  0
 31 32  1  0
 33 34  2  0
 35 36  1  0
  1 37  1  0
  1 38  1  0
  1 39  1  0
  2 40  1  0
  3 41  1  0
  3 42  1  0
  3 43  1  0
  5 44  1  0
  6 45  1  0
  7 46  1  0
  8 47  1  0
 13 48  1  0
 15 49  1  0
 17 50  1  0
 18 51  1  0
 20 52  1  0
 20 53  1  0
 21 54  1  0
 21 55  1  0
 24 56  1  0
 25 57  1  0
 30 58  1  0
 31 59  1  0
 31 60  1  0
 32 61  1  0
 32 62  1  0
 33 63  1  0
 34 64  1  0
 35 65  1  0
 35 66  1  0
 36 67  1  0
 36 68  1  0
M  END
> <Name>
Molecule

> <AbsoluteEnergy>
78.5316

> <Clean Energy>
198.799

> <ConfNumber>
92

> <MOL_NUMBER>
8

> <RelativeEnergy>
16.9826

> <POSE_NUMBER>
49

> <LibDockScore>
116.5573

> <HotSpots>
-9.53,-30.12,52.78,A,62,5
-5.53,-22.92,48.98,A,33,17
1.87,-25.32,48.38,A,30,32

$$$$
Molecule
  SciTegic05072616053D

 68 72  0  0  0  0            999 V2000
   -1.5321  -22.8832   47.6403 C   0  0  0  1  0  0
   -0.8907  -24.2359   48.0045 C   0  0  0  1  0  0
   -0.5007  -25.0294   46.7432 C   0  0  0  1  0  0
    0.2531  -24.0696   48.9796 C   0  0  0  1  0  0
    1.3755  -23.3371   48.5287 C   0  0  0  1  0  0
    2.4974  -23.1485   49.3433 C   0  0  0  1  0  0
    2.5143  -23.6896   50.6316 C   0  0  0  1  0  0
    1.4060  -24.4080   51.1050 C   0  0  0  1  0  0
    0.2441  -24.6066   50.3100 C   0  0  0  1  0  0
   -0.9624  -25.3695   50.8858 C   0  0  0  1  0  0
   -2.2142  -24.4733   50.8755 C   0  0  0  1  0  0
   -2.1429  -23.3855   51.4065 O   0  0  0  1  0  0
   -3.4015  -24.9047   50.3012 N   0  0  0  1  0  0
   -4.6148  -24.2334   50.2733 C   0  0  0  1  0  0
   -5.5631  -24.5599   49.2710 C   0  0  0  1  0  0
   -6.8256  -24.0452   49.3046 N   0  0  0  1  0  0
   -7.1456  -23.1574   50.2859 C   0  0  0  1  0  0
   -6.1956  -22.7836   51.2553 C   0  0  0  1  0  0
   -4.9383  -23.3076   51.2303 N   0  0  0  1  0  0
   -0.8254  -25.7226   52.4034 C   0  0  0  1  0  0
   -2.1032  -26.3662   53.0062 C   0  0  0  1  0  0
   -2.7447  -27.3436   52.0724 N   0  0  0  1  0  0
   -4.0904  -27.7148   52.1782 C   0  0  0  1  0  0
   -5.1067  -26.7462   52.3488 C   0  0  0  1  0  0
   -6.4629  -27.1113   52.3600 C   0  0  0  1  0  0
   -6.8422  -28.4635   52.2534 C   0  0  0  1  0  0
   -8.3137  -28.8592   52.2407 C   0  0  0  1  0  0
   -9.0656  -28.6957   53.5735 C   0  0  0  1  0  0
   -9.8344  -29.5628   53.9455 O   0  0  0  1  0  0
   -8.8926  -27.5997   54.3222 O   0  0  0  1  0  0
   -8.6968  -30.0257   51.3383 C   0  0  0  1  0  0
   -9.1173  -28.6263   50.9671 C   0  0  0  1  0  0
   -5.8369  -29.4441   52.1435 C   0  0  0  1  0  0
   -4.4763  -29.0736   52.1035 C   0  0  0  1  0  0
   -1.8632  -27.8818   50.9923 C   0  0  0  1  0  0
   -1.0951  -26.7793   50.1986 C   0  0  0  1  0  0
   -2.4208  -23.0693   47.0373 H   0  0
   -0.8188  -22.3057   47.0522 H   0  0
   -1.8014  -22.3359   48.5437 H   0  0
   -1.6404  -24.8334   48.5232 H   0  0
    0.2050  -24.4360   46.1618 H   0  0
   -1.3971  -25.1997   46.1468 H   0  0
   -0.0491  -25.9822   47.0194 H   0  0
    1.3665  -22.9105   47.5257 H   0  0
    3.3533  -22.5828   48.9751 H   0  0
    3.3883  -23.5536   51.2686 H   0  0
    1.4366  -24.8259   52.1112 H   0  0
   -3.3783  -25.8633   49.8264 H   0  0
   -5.2788  -25.2323   48.4616 H   0  0
   -8.1483  -22.7314   50.3214 H   0  0
   -6.4682  -22.0692   52.0321 H   0  0
   -0.5931  -24.8140   52.9590 H   0  0
    0.0100  -26.4108   52.5320 H   0  0
   -1.8413  -26.8792   53.9316 H   0  0
   -2.8204  -25.5808   53.2448 H   0  0
   -4.8328  -25.6986   52.4737 H   0  0
   -7.2288  -26.3412   52.4520 H   0  0
   -9.1259  -26.8046   53.6773 H   0  0
   -9.5253  -30.5981   51.7554 H   0  0
   -7.8494  -30.3635   50.7418 H   0  0
   -8.4951  -28.2163   50.1716 H   0  0
  -10.1704  -28.4503   51.1866 H   0  0
   -6.1124  -30.4973   52.0889 H   0  0
   -3.7117  -29.8452   52.0138 H   0  0
   -2.4719  -28.4578   50.2953 H   0  0
   -1.1393  -28.5644   51.4374 H   0  0
   -0.0943  -27.1509   49.9783 H   0  0
   -1.5860  -26.6468   49.2345 H   0  0
  1  2  1  0
  2  3  1  0
  2  4  1  0
  4  5  2  0
  4  9  1  0
  5  6  1  0
  6  7  2  0
  7  8  1  0
  8  9  2  0
  9 10  1  0
 10 11  1  0
 10 20  1  0
 10 36  1  0
 11 12  2  0
 11 13  1  0
 13 14  1  0
 14 15  2  0
 14 19  1  0
 15 16  1  0
 16 17  2  0
 17 18  1  0
 18 19  2  0
 20 21  1  0
 21 22  1  0
 22 23  1  0
 22 35  1  0
 23 24  2  0
 23 34  1  0
 24 25  1  0
 25 26  2  0
 26 27  1  0
 26 33  1  0
 27 28  1  0
 27 31  1  0
 27 32  1  0
 28 29  2  0
 28 30  1  0
 31 32  1  0
 33 34  2  0
 35 36  1  0
  1 37  1  0
  1 38  1  0
  1 39  1  0
  2 40  1  0
  3 41  1  0
  3 42  1  0
  3 43  1  0
  5 44  1  0
  6 45  1  0
  7 46  1  0
  8 47  1  0
 13 48  1  0
 15 49  1  0
 17 50  1  0
 18 51  1  0
 20 52  1  0
 20 53  1  0
 21 54  1  0
 21 55  1  0
 24 56  1  0
 25 57  1  0
 30 58  1  0
 31 59  1  0
 31 60  1  0
 32 61  1  0
 32 62  1  0
 33 63  1  0
 34 64  1  0
 35 65  1  0
 35 66  1  0
 36 67  1  0
 36 68  1  0
M  END
> <Name>
Molecule

> <AbsoluteEnergy>
72.8261

> <Clean Energy>
198.799

> <ConfNumber>
46

> <MOL_NUMBER>
8

> <RelativeEnergy>
11.2771

> <POSE_NUMBER>
50

> <LibDockScore>
116.4057

> <HotSpots>
2.67,-23.92,48.98,A,32,5
-5.13,-23.32,51.38,A,54,18
-7.93,-28.32,52.38,A,59,32

$$$$
Molecule
  SciTegic05072616053D

 68 72  0  0  0  0            999 V2000
    2.2014  -22.8836   50.5138 C   0  0  0  1  0  0
    1.2368  -24.0918   50.5438 C   0  0  0  1  0  0
    1.8578  -25.2238   51.3860 C   0  0  0  1  0  0
    0.7896  -24.6052   49.1885 C   0  0  0  1  0  0
    1.5960  -24.2616   48.0741 C   0  0  0  1  0  0
    1.2975  -24.7016   46.7816 C   0  0  0  1  0  0
    0.1867  -25.5156   46.5670 C   0  0  0  1  0  0
   -0.6246  -25.8753   47.6459 C   0  0  0  1  0  0
   -0.3758  -25.4247   48.9699 C   0  0  0  1  0  0
   -1.3991  -25.9110   50.0159 C   0  0  0  1  0  0
   -2.8177  -25.4463   49.6162 C   0  0  0  1  0  0
   -3.5975  -26.2487   49.1569 O   0  0  0  1  0  0
   -3.1794  -24.1156   49.7839 N   0  0  0  1  0  0
   -4.4586  -23.5977   49.9563 C   0  0  0  1  0  0
   -5.6164  -24.4035   50.1428 C   0  0  0  1  0  0
   -6.8514  -23.8441   50.2963 N   0  0  0  1  0  0
   -6.9638  -22.4866   50.2794 C   0  0  0  1  0  0
   -5.8254  -21.6741   50.1122 C   0  0  0  1  0  0
   -4.5928  -22.2333   49.9554 N   0  0  0  1  0  0
   -1.3256  -27.4773   50.0513 C   0  0  0  1  0  0
   -1.8022  -28.1399   51.3686 C   0  0  0  1  0  0
   -2.8364  -27.3145   52.0514 N   0  0  0  1  0  0
   -4.1263  -27.7844   52.2929 C   0  0  0  1  0  0
   -4.3842  -29.1701   52.4114 C   0  0  0  1  0  0
   -5.6932  -29.6443   52.6055 C   0  0  0  1  0  0
   -6.7665  -28.7404   52.6884 C   0  0  0  1  0  0
   -8.1812  -29.2394   52.8460 C   0  0  0  1  0  0
   -8.7160  -29.8616   51.5625 C   0  0  0  1  0  0
   -8.4175  -31.0012   51.2860 O   0  0  0  1  0  0
   -9.4983  -29.1278   50.7697 O   0  0  0  1  0  0
   -8.6286  -29.7915   54.1912 C   0  0  0  1  0  0
   -9.1543  -28.4586   53.7160 C   0  0  0  1  0  0
   -6.5172  -27.3608   52.6107 C   0  0  0  1  0  0
   -5.2135  -26.8870   52.4123 C   0  0  0  1  0  0
   -2.3952  -25.9309   52.4109 C   0  0  0  1  0  0
   -1.2455  -25.4425   51.4969 C   0  0  0  1  0  0
    3.1506  -23.1859   50.0713 H   0  0
    2.3718  -22.5279   51.5299 H   0  0
    1.7630  -22.0827   49.9185 H   0  0
    0.3187  -23.7261   51.0038 H   0  0
    2.0279  -24.8703   52.4030 H   0  0
    2.8066  -25.5283   50.9443 H   0  0
    1.1784  -26.0759   51.4077 H   0  0
    2.4747  -23.6358   48.2300 H   0  0
    1.9312  -24.4092   45.9443 H   0  0
   -0.0477  -25.8695   45.5631 H   0  0
   -1.4803  -26.5259   47.4651 H   0  0
   -2.3793  -23.4051   49.7800 H   0  0
   -5.5148  -25.4886   50.1634 H   0  0
   -7.9441  -22.0247   50.3964 H   0  0
   -5.9314  -20.5893   50.1082 H   0  0
   -0.2961  -27.7822   49.8635 H   0  0
   -1.9231  -27.8719   49.2295 H   0  0
   -0.9498  -28.2678   52.0358 H   0  0
   -2.2189  -29.1221   51.1457 H   0  0
   -3.5581  -29.8787   52.3515 H   0  0
   -5.8763  -30.7153   52.6919 H   0  0
   -8.9353  -28.2705   50.5449 H   0  0
   -7.8554  -29.6716   54.9500 H   0  0
   -9.3696  -30.5820   54.0721 H   0  0
  -10.1759  -28.5384   53.3445 H   0  0
   -8.6609  -27.6282   54.2211 H   0  0
   -7.3421  -26.6547   52.7052 H   0  0
   -5.0348  -25.8136   52.3492 H   0  0
   -2.0571  -25.9203   53.4471 H   0  0
   -3.2411  -25.2500   52.3163 H   0  0
   -1.2119  -24.3533   51.5233 H   0  0
   -0.2994  -25.8147   51.8899 H   0  0
  1  2  1  0
  2  3  1  0
  2  4  1  0
  4  5  2  0
  4  9  1  0
  5  6  1  0
  6  7  2  0
  7  8  1  0
  8  9  2  0
  9 10  1  0
 10 11  1  0
 10 20  1  0
 10 36  1  0
 11 12  2  0
 11 13  1  0
 13 14  1  0
 14 15  2  0
 14 19  1  0
 15 16  1  0
 16 17  2  0
 17 18  1  0
 18 19  2  0
 20 21  1  0
 21 22  1  0
 22 23  1  0
 22 35  1  0
 23 24  2  0
 23 34  1  0
 24 25  1  0
 25 26  2  0
 26 27  1  0
 26 33  1  0
 27 28  1  0
 27 31  1  0
 27 32  1  0
 28 29  2  0
 28 30  1  0
 31 32  1  0
 33 34  2  0
 35 36  1  0
  1 37  1  0
  1 38  1  0
  1 39  1  0
  2 40  1  0
  3 41  1  0
  3 42  1  0
  3 43  1  0
  5 44  1  0
  6 45  1  0
  7 46  1  0
  8 47  1  0
 13 48  1  0
 15 49  1  0
 17 50  1  0
 18 51  1  0
 20 52  1  0
 20 53  1  0
 21 54  1  0
 21 55  1  0
 24 56  1  0
 25 57  1  0
 30 58  1  0
 31 59  1  0
 31 60  1  0
 32 61  1  0
 32 62  1  0
 33 63  1  0
 34 64  1  0
 35 65  1  0
 35 66  1  0
 36 67  1  0
 36 68  1  0
M  END
> <Name>
Molecule

> <AbsoluteEnergy>
74.357

> <Clean Energy>
198.799

> <ConfNumber>
60

> <MOL_NUMBER>
8

> <RelativeEnergy>
12.808

> <POSE_NUMBER>
51

> <LibDockScore>
115.4275

> <HotSpots>
2.67,-22.92,49.98,A,39,1
1.27,-23.52,47.59,A,27,5
-6.13,-22.12,49.98,A,41,18

$$$$
Molecule
  SciTegic05072616053D

 68 72  0  0  0  0            999 V2000
   -6.3380  -22.6318   50.2335 C   0  0  0  1  0  0
   -4.8092  -22.8134   50.2695 C   0  0  0  1  0  0
   -4.1148  -21.6172   50.9507 C   0  0  0  1  0  0
   -4.2379  -23.0872   48.8965 C   0  0  0  1  0  0
   -4.4734  -22.1113   47.9019 C   0  0  0  1  0  0
   -3.9752  -22.2626   46.6035 C   0  0  0  1  0  0
   -3.2315  -23.3992   46.2772 C   0  0  0  1  0  0
   -2.9891  -24.3848   47.2469 C   0  0  0  1  0  0
   -3.4834  -24.2632   48.5734 C   0  0  0  1  0  0
   -3.1991  -25.3556   49.6219 C   0  0  0  1  0  0
   -1.9912  -24.9576   50.4966 C   0  0  0  1  0  0
   -2.1293  -24.9283   51.6998 O   0  0  0  1  0  0
   -0.7668  -24.6283   49.9135 N   0  0  0  1  0  0
    0.4938  -24.6595   50.5060 C   0  0  0  1  0  0
    1.6164  -24.1945   49.7689 C   0  0  0  1  0  0
    2.8718  -24.1843   50.3074 N   0  0  0  1  0  0
    3.0336  -24.6380   51.5806 C   0  0  0  1  0  0
    1.9342  -25.1123   52.3231 C   0  0  0  1  0  0
    0.6809  -25.1196   51.7836 N   0  0  0  1  0  0
   -4.5065  -25.6164   50.4723 C   0  0  0  1  0  0
   -4.9895  -27.0824   50.5781 C   0  0  0  1  0  0
   -3.8714  -28.0056   50.9192 N   0  0  0  1  0  0
   -3.9701  -28.9516   51.9460 C   0  0  0  1  0  0
   -5.1962  -29.6058   52.2391 C   0  0  0  1  0  0
   -5.2931  -30.5109   53.3142 C   0  0  0  1  0  0
   -4.1719  -30.7827   54.1220 C   0  0  0  1  0  0
   -4.3008  -31.6990   55.3330 C   0  0  0  1  0  0
   -4.1164  -33.2038   55.0564 C   0  0  0  1  0  0
   -3.3345  -33.5669   54.2060 O   0  0  0  1  0  0
   -4.8087  -34.1211   55.7525 O   0  0  0  1  0  0
   -5.2998  -31.2605   56.3976 C   0  0  0  1  0  0
   -3.8181  -31.1799   56.6827 C   0  0  0  1  0  0
   -2.9389  -30.1812   53.8027 C   0  0  0  1  0  0
   -2.8394  -29.2762   52.7302 C   0  0  0  1  0  0
   -2.6330  -27.8437   50.0966 C   0  0  0  1  0  0
   -2.7847  -26.7380   49.0191 C   0  0  0  1  0  0
   -6.5672  -21.7172   49.6866 H   0  0
   -6.7011  -22.5335   51.2565 H   0  0
   -6.8108  -23.4861   49.7490 H   0  0
   -4.6054  -23.6960   50.8758 H   0  0
   -4.4954  -21.5268   51.9681 H   0  0
   -4.3615  -20.7106   50.3982 H   0  0
   -3.0348  -21.7636   50.9667 H   0  0
   -5.0545  -21.2235   48.1513 H   0  0
   -4.1662  -21.4979   45.8506 H   0  0
   -2.8387  -23.5210   45.2678 H   0  0
   -2.4071  -25.2655   46.9754 H   0  0
   -0.8001  -24.3150   48.8910 H   0  0
    1.4722  -23.8374   48.7492 H   0  0
    4.0261  -24.6343   52.0312 H   0  0
    2.0864  -25.4771   53.3389 H   0  0
   -5.3161  -25.0192   50.0528 H   0  0
   -4.3427  -25.2366   51.4808 H   0  0
   -5.4256  -27.3866   49.6266 H   0  0
   -5.7574  -27.1520   51.3485 H   0  0
   -6.0735  -29.4049   51.6242 H   0  0
   -6.2425  -31.0043   53.5223 H   0  0
   -5.8129  -33.8492   55.6103 H   0  0
   -5.7586  -32.1168   56.8920 H   0  0
   -5.7199  -30.2806   56.1710 H   0  0
   -3.4493  -30.1569   56.6087 H   0  0
   -3.4876  -31.9937   57.3281 H   0  0
   -2.0535  -30.4192   54.3922 H   0  0
   -1.8770  -28.8188   52.5006 H   0  0
   -2.4042  -28.7898   49.6060 H   0  0
   -1.8005  -27.5898   50.7528 H   0  0
   -1.8378  -26.6265   48.4908 H   0  0
   -3.5378  -27.0498   48.2954 H   0  0
  1  2  1  0
  2  3  1  0
  2  4  1  0
  4  5  2  0
  4  9  1  0
  5  6  1  0
  6  7  2  0
  7  8  1  0
  8  9  2  0
  9 10  1  0
 10 11  1  0
 10 20  1  0
 10 36  1  0
 11 12  2  0
 11 13  1  0
 13 14  1  0
 14 15  2  0
 14 19  1  0
 15 16  1  0
 16 17  2  0
 17 18  1  0
 18 19  2  0
 20 21  1  0
 21 22  1  0
 22 23  1  0
 22 35  1  0
 23 24  2  0
 23 34  1  0
 24 25  1  0
 25 26  2  0
 26 27  1  0
 26 33  1  0
 27 28  1  0
 27 31  1  0
 27 32  1  0
 28 29  2  0
 28 30  1  0
 31 32  1  0
 33 34  2  0
 35 36  1  0
  1 37  1  0
  1 38  1  0
  1 39  1  0
  2 40  1  0
  3 41  1  0
  3 42  1  0
  3 43  1  0
  5 44  1  0
  6 45  1  0
  7 46  1  0
  8 47  1  0
 13 48  1  0
 15 49  1  0
 17 50  1  0
 18 51  1  0
 20 52  1  0
 20 53  1  0
 21 54  1  0
 21 55  1  0
 24 56  1  0
 25 57  1  0
 30 58  1  0
 31 59  1  0
 31 60  1  0
 32 61  1  0
 32 62  1  0
 33 63  1  0
 34 64  1  0
 35 65  1  0
 35 66  1  0
 36 67  1  0
 36 68  1  0
M  END
> <Name>
Molecule

> <AbsoluteEnergy>
67.348

> <Clean Energy>
198.799

> <ConfNumber>
16

> <MOL_NUMBER>
8

> <RelativeEnergy>
5.79902

> <POSE_NUMBER>
52

> <LibDockScore>
115.3564

> <HotSpots>
-3.53,-22.32,46.59,A,20,6
2.27,-24.92,52.19,A,58,18
-4.13,-31.12,56.59,A,79,32

$$$$
Molecule
  SciTegic05072616053D

 68 72  0  0  0  0            999 V2000
   -2.4449  -26.5770   45.7854 C   0  0  0  1  0  0
   -3.8415  -26.0871   46.1979 C   0  0  0  1  0  0
   -4.7790  -26.0285   44.9606 C   0  0  0  1  0  0
   -3.7300  -24.7856   46.9711 C   0  0  0  1  0  0
   -4.1402  -23.6271   46.2612 C   0  0  0  1  0  0
   -4.1404  -22.3589   46.8422 C   0  0  0  1  0  0
   -3.6974  -22.2033   48.1512 C   0  0  0  1  0  0
   -3.2379  -23.3124   48.8630 C   0  0  0  1  0  0
   -3.2400  -24.6302   48.3246 C   0  0  0  1  0  0
   -2.6837  -25.7065   49.2875 C   0  0  0  1  0  0
   -1.1697  -25.4808   49.4931 C   0  0  0  1  0  0
   -0.3840  -25.8769   48.6599 O   0  0  0  1  0  0
   -0.7134  -24.8674   50.6533 N   0  0  0  1  0  0
    0.5969  -24.7301   51.0884 C   0  0  0  1  0  0
    0.8206  -24.4889   52.4740 C   0  0  0  1  0  0
    2.0748  -24.4773   52.9951 N   0  0  0  1  0  0
    3.1324  -24.6212   52.1494 C   0  0  0  1  0  0
    2.9337  -24.7960   50.7639 C   0  0  0  1  0  0
    1.6734  -24.8488   50.2418 N   0  0  0  1  0  0
   -2.8731  -27.2015   48.8817 C   0  0  0  1  0  0
   -2.3965  -28.2560   49.9157 C   0  0  0  1  0  0
   -2.8437  -27.9851   51.3170 N   0  0  0  1  0  0
   -3.1743  -28.9820   52.2324 C   0  0  0  1  0  0
   -2.7933  -28.8189   53.5846 C   0  0  0  1  0  0
   -3.1890  -29.7415   54.5618 C   0  0  0  1  0  0
   -3.9640  -30.8577   54.2044 C   0  0  0  1  0  0
   -4.4562  -31.8000   55.2852 C   0  0  0  1  0  0
   -5.8649  -31.4551   55.7828 C   0  0  0  1  0  0
   -6.5814  -32.3388   56.2032 O   0  0  0  1  0  0
   -6.2750  -30.1805   55.7359 O   0  0  0  1  0  0
   -3.4414  -32.3323   56.2854 C   0  0  0  1  0  0
   -4.0436  -33.2677   55.2631 C   0  0  0  1  0  0
   -4.2930  -31.0718   52.8519 C   0  0  0  1  0  0
   -3.8944  -30.1439   51.8707 C   0  0  0  1  0  0
   -2.9166  -26.5698   51.7440 C   0  0  0  1  0  0
   -3.4855  -25.6676   50.6411 C   0  0  0  1  0  0
   -2.0293  -25.8919   45.0465 H   0  0
   -2.5298  -27.5710   45.3462 H   0  0
   -1.7929  -26.6156   46.6581 H   0  0
   -4.3079  -26.7963   46.8817 H   0  0
   -4.8574  -27.0240   44.5236 H   0  0
   -4.3569  -25.3449   44.2240 H   0  0
   -5.7673  -25.6803   45.2608 H   0  0
   -4.4663  -23.7319   45.2264 H   0  0
   -4.4856  -21.4953   46.2738 H   0  0
   -3.7090  -21.2191   48.6194 H   0  0
   -2.8612  -23.1631   49.8749 H   0  0
   -1.4652  -24.4494   51.2897 H   0  0
   -0.0318  -24.3100   53.1294 H   0  0
    4.1465  -24.6010   52.5486 H   0  0
    3.7955  -24.8899   50.1031 H   0  0
   -2.3455  -27.3757   47.9440 H   0  0
   -3.9299  -27.3729   48.6768 H   0  0
   -1.3075  -28.2995   49.8989 H   0  0
   -2.7658  -29.2363   49.6143 H   0  0
   -2.1826  -27.9626   53.8707 H   0  0
   -2.8952  -29.5932   55.6009 H   0  0
   -6.1698  -29.8958   54.7307 H   0  0
   -3.8862  -32.4732   57.2705 H   0  0
   -2.4255  -32.0428   56.0165 H   0  0
   -3.3489  -33.4751   54.4492 H   0  0
   -4.8111  -33.9044   55.7031 H   0  0
   -4.8578  -31.9584   52.5638 H   0  0
   -4.1428  -30.3226   50.8245 H   0  0
   -3.5503  -26.4960   52.6278 H   0  0
   -1.9172  -26.2238   52.0077 H   0  0
   -3.5071  -24.6410   51.0067 H   0  0
   -4.5171  -25.9617   50.4475 H   0  0
  1  2  1  0
  2  3  1  0
  2  4  1  0
  4  5  2  0
  4  9  1  0
  5  6  1  0
  6  7  2  0
  7  8  1  0
  8  9  2  0
  9 10  1  0
 10 11  1  0
 10 20  1  0
 10 36  1  0
 11 12  2  0
 11 13  1  0
 13 14  1  0
 14 15  2  0
 14 19  1  0
 15 16  1  0
 16 17  2  0
 17 18  1  0
 18 19  2  0
 20 21  1  0
 21 22  1  0
 22 23  1  0
 22 35  1  0
 23 24  2  0
 23 34  1  0
 24 25  1  0
 25 26  2  0
 26 27  1  0
 26 33  1  0
 27 28  1  0
 27 31  1  0
 27 32  1  0
 28 29  2  0
 28 30  1  0
 31 32  1  0
 33 34  2  0
 35 36  1  0
  1 37  1  0
  1 38  1  0
  1 39  1  0
  2 40  1  0
  3 41  1  0
  3 42  1  0
  3 43  1  0
  5 44  1  0
  6 45  1  0
  7 46  1  0
  8 47  1  0
 13 48  1  0
 15 49  1  0
 17 50  1  0
 18 51  1  0
 20 52  1  0
 20 53  1  0
 21 54  1  0
 21 55  1  0
 24 56  1  0
 25 57  1  0
 30 58  1  0
 31 59  1  0
 31 60  1  0
 32 61  1  0
 32 62  1  0
 33 63  1  0
 34 64  1  0
 35 65  1  0
 35 66  1  0
 36 67  1  0
 36 68  1  0
M  END
> <Name>
Molecule

> <AbsoluteEnergy>
80.6059

> <Clean Energy>
198.799

> <ConfNumber>
105

> <MOL_NUMBER>
8

> <RelativeEnergy>
19.0569

> <POSE_NUMBER>
53

> <LibDockScore>
114.9688

> <HotSpots>
-4.33,-26.12,45.19,A,10,3
-3.53,-22.32,46.59,A,20,6
-4.33,-32.92,55.19,A,75,32

$$$$
Molecule
  SciTegic05072616053D

 68 72  0  0  0  0            999 V2000
    0.0669  -23.4399   53.1923 C   0  0  0  1  0  0
   -0.0487  -24.4621   52.0439 C   0  0  0  1  0  0
   -0.5416  -25.8294   52.5537 C   0  0  0  1  0  0
    1.2311  -24.5859   51.2466 C   0  0  0  1  0  0
    2.3860  -24.9123   51.9825 C   0  0  0  1  0  0
    3.6373  -25.0058   51.3670 C   0  0  0  1  0  0
    3.7539  -24.7692   49.9946 C   0  0  0  1  0  0
    2.6141  -24.4692   49.2350 C   0  0  0  1  0  0
    1.3288  -24.4008   49.8272 C   0  0  0  1  0  0
    0.1046  -24.1538   48.9451 C   0  0  0  1  0  0
   -1.0909  -24.9142   49.5573 C   0  0  0  1  0  0
   -2.0196  -24.2979   50.0300 O   0  0  0  1  0  0
   -1.0985  -26.3049   49.5651 N   0  0  0  1  0  0
   -2.0163  -27.1382   50.1972 C   0  0  0  1  0  0
   -1.8700  -28.5469   50.0870 C   0  0  0  1  0  0
   -2.7532  -29.4008   50.6823 N   0  0  0  1  0  0
   -3.7903  -28.8781   51.3957 C   0  0  0  1  0  0
   -3.9509  -27.4848   51.5122 C   0  0  0  1  0  0
   -3.0681  -26.6341   50.9187 N   0  0  0  1  0  0
    0.2314  -24.6846   47.4609 C   0  0  0  1  0  0
   -1.0542  -24.4620   46.6025 C   0  0  0  1  0  0
   -1.7988  -23.2867   47.1472 N   0  0  0  1  0  0
   -3.1297  -23.3019   47.5734 C   0  0  0  1  0  0
   -3.8843  -24.5007   47.5811 C   0  0  0  1  0  0
   -5.0147  -24.6127   48.4025 C   0  0  0  1  0  0
   -5.4291  -23.5118   49.1689 C   0  0  0  1  0  0
   -6.4205  -23.7042   50.2858 C   0  0  0  1  0  0
   -5.9122  -24.7357   51.3004 C   0  0  0  1  0  0
   -4.8438  -24.5672   51.8541 O   0  0  0  1  0  0
   -6.6453  -25.8187   51.5509 O   0  0  0  1  0  0
   -7.9067  -23.6338   49.9750 C   0  0  0  1  0  0
   -7.2548  -22.5373   50.7854 C   0  0  0  1  0  0
   -4.8714  -22.2470   48.9243 C   0  0  0  1  0  0
   -3.7343  -22.1381   48.1104 C   0  0  0  1  0  0
   -0.8627  -22.1846   47.4723 C   0  0  0  1  0  0
   -0.1282  -22.5948   48.7783 C   0  0  0  1  0  0
    0.7664  -23.8266   53.9335 H   0  0
   -0.9129  -23.3247   53.6558 H   0  0
    0.4166  -22.4799   52.8126 H   0  0
   -0.8018  -24.0779   51.3560 H   0  0
   -1.5166  -25.6954   53.0223 H   0  0
    0.1626  -26.1972   53.2999 H   0  0
   -0.6169  -26.5379   51.7288 H   0  0
    2.3026  -25.0958   53.0537 H   0  0
    4.5186  -25.2622   51.9549 H   0  0
    4.7313  -24.8179   49.5145 H   0  0
    2.7192  -24.2846   48.1659 H   0  0
   -0.3111  -26.7878   49.0250 H   0  0
   -1.0358  -28.9542   49.5157 H   0  0
   -4.5023  -29.5458   51.8808 H   0  0
   -4.7887  -27.0831   52.0821 H   0  0
    0.4580  -25.7505   47.4845 H   0  0
    1.0688  -24.1821   46.9768 H   0  0
   -0.7729  -24.2677   45.5675 H   0  0
   -1.6859  -25.3488   46.6528 H   0  0
   -3.5859  -25.3364   46.9481 H   0  0
   -5.5693  -25.5501   48.4460 H   0  0
   -6.7846  -26.2739   50.6150 H   0  0
   -8.4803  -24.3128   50.6059 H   0  0
   -8.0856  -23.3211   48.9463 H   0  0
   -7.0884  -21.6410   50.1879 H   0  0
   -7.4816  -22.6333   51.8472 H   0  0
   -5.3190  -21.3556   49.3639 H   0  0
   -3.3148  -21.1564   47.8905 H   0  0
   -1.4182  -21.2612   47.6363 H   0  0
   -0.1399  -22.0620   46.6657 H   0  0
    0.8375  -22.0902   48.8080 H   0  0
   -0.7040  -22.2334   49.6303 H   0  0
  1  2  1  0
  2  3  1  0
  2  4  1  0
  4  5  2  0
  4  9  1  0
  5  6  1  0
  6  7  2  0
  7  8  1  0
  8  9  2  0
  9 10  1  0
 10 11  1  0
 10 20  1  0
 10 36  1  0
 11 12  2  0
 11 13  1  0
 13 14  1  0
 14 15  2  0
 14 19  1  0
 15 16  1  0
 16 17  2  0
 17 18  1  0
 18 19  2  0
 20 21  1  0
 21 22  1  0
 22 23  1  0
 22 35  1  0
 23 24  2  0
 23 34  1  0
 24 25  1  0
 25 26  2  0
 26 27  1  0
 26 33  1  0
 27 28  1  0
 27 31  1  0
 27 32  1  0
 28 29  2  0
 28 30  1  0
 31 32  1  0
 33 34  2  0
 35 36  1  0
  1 37  1  0
  1 38  1  0
  1 39  1  0
  2 40  1  0
  3 41  1  0
  3 42  1  0
  3 43  1  0
  5 44  1  0
  6 45  1  0
  7 46  1  0
  8 47  1  0
 13 48  1  0
 15 49  1  0
 17 50  1  0
 18 51  1  0
 20 52  1  0
 20 53  1  0
 21 54  1  0
 21 55  1  0
 24 56  1  0
 25 57  1  0
 30 58  1  0
 31 59  1  0
 31 60  1  0
 32 61  1  0
 32 62  1  0
 33 63  1  0
 34 64  1  0
 35 65  1  0
 35 66  1  0
 36 67  1  0
 36 68  1  0
M  END
> <Name>
Molecule

> <AbsoluteEnergy>
79.9717

> <Clean Energy>
198.799

> <ConfNumber>
101

> <MOL_NUMBER>
8

> <RelativeEnergy>
18.4227

> <POSE_NUMBER>
54

> <LibDockScore>
114.6445

> <HotSpots>
3.07,-24.52,50.38,A,43,5
0.27,-24.92,46.38,A,19,20
-7.33,-24.12,50.38,A,44,31

$$$$
Molecule
  SciTegic05072616053D

 68 72  0  0  0  0            999 V2000
   -0.9077  -26.1056   47.8464 C   0  0  0  1  0  0
   -2.3174  -26.5792   48.2552 C   0  0  0  1  0  0
   -2.8195  -27.7285   47.3600 C   0  0  0  1  0  0
   -3.3107  -25.4405   48.3157 C   0  0  0  1  0  0
   -3.6249  -24.8249   47.0851 C   0  0  0  1  0  0
   -4.5039  -23.7395   47.0175 C   0  0  0  1  0  0
   -5.0838  -23.2439   48.1879 C   0  0  0  1  0  0
   -4.7988  -23.8481   49.4186 C   0  0  0  1  0  0
   -3.9300  -24.9671   49.5192 C   0  0  0  1  0  0
   -3.6991  -25.6168   50.8871 C   0  0  0  1  0  0
   -4.6670  -26.8009   51.0958 C   0  0  0  1  0  0
   -4.3151  -27.9162   50.7854 O   0  0  0  1  0  0
   -5.9173  -26.5894   51.6648 N   0  0  0  1  0  0
   -6.8378  -27.5469   52.0871 C   0  0  0  1  0  0
   -6.7239  -28.9337   51.7927 C   0  0  0  1  0  0
   -7.6166  -29.8419   52.2718 N   0  0  0  1  0  0
   -8.6495  -29.4020   53.0417 C   0  0  0  1  0  0
   -8.7940  -28.0305   53.3288 C   0  0  0  1  0  0
   -7.8926  -27.1219   52.8554 N   0  0  0  1  0  0
   -3.9403  -24.6469   52.1109 C   0  0  0  1  0  0
   -3.8018  -25.3413   53.4950 C   0  0  0  1  0  0
   -2.8433  -26.4834   53.3826 N   0  0  0  1  0  0
   -3.1144  -27.7797   53.8350 C   0  0  0  1  0  0
   -2.0954  -28.7626   53.8943 C   0  0  0  1  0  0
   -2.4195  -30.1171   54.0578 C   0  0  0  1  0  0
   -3.7614  -30.5114   54.1718 C   0  0  0  1  0  0
   -4.1334  -31.9723   54.1223 C   0  0  0  1  0  0
   -4.0911  -32.6691   55.4752 C   0  0  0  1  0  0
   -3.0989  -33.2821   55.7953 O   0  0  0  1  0  0
   -5.1513  -32.5959   56.2803 O   0  0  0  1  0  0
   -3.8289  -32.7837   52.8707 C   0  0  0  1  0  0
   -5.2448  -32.3630   53.1560 C   0  0  0  1  0  0
   -4.7599  -29.5320   54.3035 C   0  0  0  1  0  0
   -4.4317  -28.1745   54.1783 C   0  0  0  1  0  0
   -1.6871  -26.1267   52.5192 C   0  0  0  1  0  0
   -2.1834  -26.0394   51.0472 C   0  0  0  1  0  0
   -0.9434  -25.7718   46.8094 H   0  0
   -0.2246  -26.9517   47.9211 H   0  0
   -0.5738  -25.2936   48.4924 H   0  0
   -2.2312  -26.9738   49.2676 H   0  0
   -2.1180  -28.5590   47.4394 H   0  0
   -2.8368  -27.3790   46.3277 H   0  0
   -3.8159  -28.0463   47.6670 H   0  0
   -3.1729  -25.2035   46.1683 H   0  0
   -4.7357  -23.2820   46.0557 H   0  0
   -5.7572  -22.3880   48.1432 H   0  0
   -5.2561  -23.4488   50.3239 H   0  0
   -6.2084  -25.5679   51.7943 H   0  0
   -5.9003  -29.2778   51.1672 H   0  0
   -9.3703  -30.1166   53.4391 H   0  0
   -9.6341  -27.6917   53.9351 H   0  0
   -4.9393  -24.2183   52.0313 H   0  0
   -3.2257  -23.8256   52.0565 H   0  0
   -3.4281  -24.6242   54.2259 H   0  0
   -4.7748  -25.7142   53.8149 H   0  0
   -1.0506  -28.4632   53.8121 H   0  0
   -1.6276  -30.8651   54.0964 H   0  0
   -5.9508  -32.9677   55.7102 H   0  0
   -3.6652  -33.8353   53.1063 H   0  0
   -3.3727  -32.1667   52.0965 H   0  0
   -5.5483  -31.5203   52.5349 H   0  0
   -5.8403  -33.1883   53.5462 H   0  0
   -5.7900  -29.8274   54.5030 H   0  0
   -5.1964  -27.4162   54.3465 H   0  0
   -0.9176  -26.8944   52.6000 H   0  0
   -1.2841  -25.1617   52.8266 H   0  0
   -1.5605  -25.3234   50.5111 H   0  0
   -2.0380  -27.0094   50.5718 H   0  0
  1  2  1  0
  2  3  1  0
  2  4  1  0
  4  5  2  0
  4  9  1  0
  5  6  1  0
  6  7  2  0
  7  8  1  0
  8  9  2  0
  9 10  1  0
 10 11  1  0
 10 20  1  0
 10 36  1  0
 11 12  2  0
 11 13  1  0
 13 14  1  0
 14 15  2  0
 14 19  1  0
 15 16  1  0
 16 17  2  0
 17 18  1  0
 18 19  2  0
 20 21  1  0
 21 22  1  0
 22 23  1  0
 22 35  1  0
 23 24  2  0
 23 34  1  0
 24 25  1  0
 25 26  2  0
 26 27  1  0
 26 33  1  0
 27 28  1  0
 27 31  1  0
 27 32  1  0
 28 29  2  0
 28 30  1  0
 31 32  1  0
 33 34  2  0
 35 36  1  0
  1 37  1  0
  1 38  1  0
  1 39  1  0
  2 40  1  0
  3 41  1  0
  3 42  1  0
  3 43  1  0
  5 44  1  0
  6 45  1  0
  7 46  1  0
  8 47  1  0
 13 48  1  0
 15 49  1  0
 17 50  1  0
 18 51  1  0
 20 52  1  0
 20 53  1  0
 21 54  1  0
 21 55  1  0
 24 56  1  0
 25 57  1  0
 30 58  1  0
 31 59  1  0
 31 60  1  0
 32 61  1  0
 32 62  1  0
 33 63  1  0
 34 64  1  0
 35 65  1  0
 35 66  1  0
 36 67  1  0
 36 68  1  0
M  END
> <Name>
Molecule

> <AbsoluteEnergy>
74.5881

> <Clean Energy>
198.799

> <ConfNumber>
62

> <MOL_NUMBER>
8

> <RelativeEnergy>
13.0391

> <POSE_NUMBER>
55

> <LibDockScore>
114.5965

> <HotSpots>
-2.53,-22.32,48.19,A,29,6
-7.93,-28.32,52.38,A,59,17
-3.33,-33.72,54.98,P,58,29

$$$$
Molecule
  SciTegic05072616053D

 68 72  0  0  0  0            999 V2000
   -0.6771  -21.6063   46.3026 C   0  0  0  1  0  0
   -1.1906  -22.5441   47.4216 C   0  0  0  1  0  0
   -2.6786  -22.8693   47.1873 C   0  0  0  1  0  0
   -0.3883  -23.8131   47.6192 C   0  0  0  1  0  0
    0.7497  -23.9918   46.7919 C   0  0  0  1  0  0
    1.5546  -25.1347   46.8769 C   0  0  0  1  0  0
    1.2327  -26.1418   47.7855 C   0  0  0  1  0  0
    0.1124  -25.9960   48.6066 C   0  0  0  1  0  0
   -0.7169  -24.8434   48.5670 C   0  0  0  1  0  0
   -1.8889  -24.8997   49.5621 C   0  0  0  1  0  0
   -1.4164  -25.7449   50.7676 C   0  0  0  1  0  0
   -0.4582  -25.3292   51.3847 O   0  0  0  1  0  0
   -2.0379  -26.9298   51.1488 N   0  0  0  1  0  0
   -1.9144  -27.5937   52.3675 C   0  0  0  1  0  0
   -2.3953  -28.9253   52.4816 C   0  0  0  1  0  0
   -2.3224  -29.6116   53.6576 N   0  0  0  1  0  0
   -1.7672  -28.9965   54.7388 C   0  0  0  1  0  0
   -1.2735  -27.6809   54.6437 C   0  0  0  1  0  0
   -1.3505  -26.9951   53.4668 N   0  0  0  1  0  0
   -2.3859  -23.5975   50.2711 C   0  0  0  1  0  0
   -3.5765  -23.8516   51.2421 C   0  0  0  1  0  0
   -4.5457  -24.8375   50.6729 N   0  0  0  1  0  0
   -5.3652  -25.6669   51.4354 C   0  0  0  1  0  0
   -6.7610  -25.7048   51.2080 C   0  0  0  1  0  0
   -7.5686  -26.6479   51.8630 C   0  0  0  1  0  0
   -6.9957  -27.5685   52.7554 C   0  0  0  1  0  0
   -7.8420  -28.6655   53.3599 C   0  0  0  1  0  0
   -8.1633  -29.7550   52.3399 C   0  0  0  1  0  0
   -7.3380  -30.6154   52.1354 O   0  0  0  1  0  0
   -9.3250  -29.7480   51.6840 O   0  0  0  1  0  0
   -7.6045  -29.0978   54.7997 C   0  0  0  1  0  0
   -8.8424  -28.3122   54.4501 C   0  0  0  1  0  0
   -5.6266  -27.4748   53.0614 C   0  0  0  1  0  0
   -4.8241  -26.5180   52.4240 C   0  0  0  1  0  0
   -4.5061  -24.9437   49.1942 C   0  0  0  1  0  0
   -3.1181  -25.4408   48.7375 C   0  0  0  1  0  0
   -1.2560  -20.6828   46.3103 H   0  0
   -0.7935  -22.0978   45.3367 H   0  0
    0.3754  -21.3777   46.4704 H   0  0
   -1.0607  -21.9906   48.3516 H   0  0
   -2.7940  -23.3602   46.2210 H   0  0
   -3.2565  -21.9452   47.1946 H   0  0
   -3.0380  -23.5298   47.9764 H   0  0
    1.0053  -23.2171   46.0689 H   0  0
    2.4296  -25.2364   46.2349 H   0  0
    1.8510  -27.0368   47.8546 H   0  0
   -0.1348  -26.7965   49.3038 H   0  0
   -2.6831  -27.3820   50.4248 H   0  0
   -2.8328  -29.4099   51.6087 H   0  0
   -1.7043  -29.5284   55.6881 H   0  0
   -0.8263  -27.2068   55.5174 H   0  0
   -1.5591  -23.1612   50.8316 H   0  0
   -2.6945  -22.8762   49.5144 H   0  0
   -4.0936  -22.9109   51.4312 H   0  0
   -3.1927  -24.2332   52.1882 H   0  0
   -7.2142  -24.9941   50.5168 H   0  0
   -8.6427  -26.6657   51.6785 H   0  0
   -9.3595  -28.8043   51.2249 H   0  0
   -6.8551  -28.4734   55.2862 H   0  0
   -7.8251  -30.1559   54.9403 H   0  0
   -9.7250  -28.9502   54.4050 H   0  0
   -8.7546  -27.2677   54.7493 H   0  0
   -5.1874  -28.1486   53.7970 H   0  0
   -3.7718  -26.4301   52.6942 H   0  0
   -5.2695  -25.6468   48.8611 H   0  0
   -4.7023  -23.9658   48.7546 H   0  0
   -2.9811  -25.1681   47.6911 H   0  0
   -3.1116  -26.5300   48.7775 H   0  0
  1  2  1  0
  2  3  1  0
  2  4  1  0
  4  5  2  0
  4  9  1  0
  5  6  1  0
  6  7  2  0
  7  8  1  0
  8  9  2  0
  9 10  1  0
 10 11  1  0
 10 20  1  0
 10 36  1  0
 11 12  2  0
 11 13  1  0
 13 14  1  0
 14 15  2  0
 14 19  1  0
 15 16  1  0
 16 17  2  0
 17 18  1  0
 18 19  2  0
 20 21  1  0
 21 22  1  0
 22 23  1  0
 22 35  1  0
 23 24  2  0
 23 34  1  0
 24 25  1  0
 25 26  2  0
 26 27  1  0
 26 33  1  0
 27 28  1  0
 27 31  1  0
 27 32  1  0
 28 29  2  0
 28 30  1  0
 31 32  1  0
 33 34  2  0
 35 36  1  0
  1 37  1  0
  1 38  1  0
  1 39  1  0
  2 40  1  0
  3 41  1  0
  3 42  1  0
  3 43  1  0
  5 44  1  0
  6 45  1  0
  7 46  1  0
  8 47  1  0
 13 48  1  0
 15 49  1  0
 17 50  1  0
 18 51  1  0
 20 52  1  0
 20 53  1  0
 21 54  1  0
 21 55  1  0
 24 56  1  0
 25 57  1  0
 30 58  1  0
 31 59  1  0
 31 60  1  0
 32 61  1  0
 32 62  1  0
 33 63  1  0
 34 64  1  0
 35 65  1  0
 35 66  1  0
 36 67  1  0
 36 68  1  0
M  END
> <Name>
Molecule

> <AbsoluteEnergy>
78.9715

> <Clean Energy>
198.799

> <ConfNumber>
94

> <MOL_NUMBER>
8

> <RelativeEnergy>
17.4225

> <POSE_NUMBER>
56

> <LibDockScore>
114.5098

> <HotSpots>
1.87,-24.92,46.78,A,22,6
-0.93,-28.12,54.98,A,74,17
-8.73,-28.12,54.38,A,70,32

$$$$
Molecule
  SciTegic05072616053D

 68 72  0  0  0  0            999 V2000
   -1.8369  -24.0111   48.3249 C   0  0  0  1  0  0
   -1.1809  -25.2885   48.8809 C   0  0  0  1  0  0
   -0.5390  -26.1231   47.7562 C   0  0  0  1  0  0
   -0.2076  -24.9780   49.9962 C   0  0  0  1  0  0
    0.9755  -24.2969   49.6307 C   0  0  0  1  0  0
    1.9538  -23.9768   50.5786 C   0  0  0  1  0  0
    1.7616  -24.3281   51.9169 C   0  0  0  1  0  0
    0.5919  -24.9953   52.3045 C   0  0  0  1  0  0
   -0.4211  -25.3309   51.3691 C   0  0  0  1  0  0
   -1.6866  -26.0534   51.8546 C   0  0  0  1  0  0
   -2.9552  -25.5172   51.1726 C   0  0  0  1  0  0
   -3.7033  -26.3011   50.6289 O   0  0  0  1  0  0
   -3.2470  -24.1586   51.1920 N   0  0  0  1  0  0
   -4.4692  -23.5715   50.8765 C   0  0  0  1  0  0
   -4.5040  -22.2316   50.4097 C   0  0  0  1  0  0
   -5.6864  -21.6197   50.1065 N   0  0  0  1  0  0
   -6.8460  -22.3185   50.2544 C   0  0  0  1  0  0
   -6.8295  -23.6471   50.7215 C   0  0  0  1  0  0
   -5.6497  -24.2580   51.0235 N   0  0  0  1  0  0
   -1.9765  -25.8766   53.3850 C   0  0  0  1  0  0
   -3.2959  -26.5473   53.8398 C   0  0  0  1  0  0
   -3.5251  -27.8388   53.1258 N   0  0  0  1  0  0
   -4.7934  -28.3554   52.8877 C   0  0  0  1  0  0
   -5.9223  -27.5053   52.8647 C   0  0  0  1  0  0
   -7.1942  -28.0122   52.5623 C   0  0  0  1  0  0
   -7.3670  -29.3816   52.2919 C   0  0  0  1  0  0
   -8.7340  -29.9162   51.9309 C   0  0  0  1  0  0
   -9.6737  -30.0525   53.1246 C   0  0  0  1  0  0
  -10.3541  -31.0474   53.2399 O   0  0  0  1  0  0
   -9.7370  -29.0649   54.0164 O   0  0  0  1  0  0
   -9.3501  -29.4771   50.6125 C   0  0  0  1  0  0
   -8.8574  -30.8935   50.7714 C   0  0  0  1  0  0
   -6.2566  -30.2437   52.3502 C   0  0  0  1  0  0
   -4.9794  -29.7347   52.6444 C   0  0  0  1  0  0
   -2.2945  -28.5103   52.6298 C   0  0  0  1  0  0
   -1.5094  -27.6020   51.6491 C   0  0  0  1  0  0
   -2.6007  -24.2968   47.6016 H   0  0
   -1.0743  -23.4177   47.8204 H   0  0
   -2.2855  -23.4333   49.1330 H   0  0
   -1.9684  -25.9009   49.3201 H   0  0
    0.2143  -25.5146   47.2558 H   0  0
   -1.3121  -26.3937   47.0370 H   0  0
   -0.0799  -27.0224   48.1669 H   0  0
    1.1291  -24.0151   48.5890 H   0  0
    2.8615  -23.4558   50.2742 H   0  0
    2.5212  -24.0833   52.6593 H   0  0
    0.4565  -25.2636   53.3523 H   0  0
   -2.4544  -23.4990   51.4775 H   0  0
   -3.5705  -21.6814   50.2912 H   0  0
   -7.7964  -21.8448   50.0088 H   0  0
   -7.7668  -24.1902   50.8422 H   0  0
   -2.0239  -24.8125   53.6165 H   0  0
   -1.1499  -26.3031   53.9533 H   0  0
   -3.2520  -26.7348   54.9127 H   0  0
   -4.1296  -25.8747   53.6382 H   0  0
   -5.8029  -26.4444   53.0844 H   0  0
   -8.0532  -27.3417   52.5367 H   0  0
   -9.9863  -28.2105   53.4593 H   0  0
   -8.6563  -28.8728   50.0281 H   0  0
  -10.4365  -29.4189   50.6789 H   0  0
   -9.6808  -31.5916   50.9227 H   0  0
   -7.8998  -31.0450   50.2733 H   0  0
   -6.3870  -31.3102   52.1666 H   0  0
   -4.1250  -30.4103   52.6851 H   0  0
   -2.5699  -29.4336   52.1200 H   0  0
   -1.6557  -28.7586   53.4774 H   0  0
   -0.4496  -27.8441   51.7284 H   0  0
   -1.8088  -27.8531   50.6315 H   0  0
  1  2  1  0
  2  3  1  0
  2  4  1  0
  4  5  2  0
  4  9  1  0
  5  6  1  0
  6  7  2  0
  7  8  1  0
  8  9  2  0
  9 10  1  0
 10 11  1  0
 10 20  1  0
 10 36  1  0
 11 12  2  0
 11 13  1  0
 13 14  1  0
 14 15  2  0
 14 19  1  0
 15 16  1  0
 16 17  2  0
 17 18  1  0
 18 19  2  0
 20 21  1  0
 21 22  1  0
 22 23  1  0
 22 35  1  0
 23 24  2  0
 23 34  1  0
 24 25  1  0
 25 26  2  0
 26 27  1  0
 26 33  1  0
 27 28  1  0
 27 31  1  0
 27 32  1  0
 28 29  2  0
 28 30  1  0
 31 32  1  0
 33 34  2  0
 35 36  1  0
  1 37  1  0
  1 38  1  0
  1 39  1  0
  2 40  1  0
  3 41  1  0
  3 42  1  0
  3 43  1  0
  5 44  1  0
  6 45  1  0
  7 46  1  0
  8 47  1  0
 13 48  1  0
 15 49  1  0
 17 50  1  0
 18 51  1  0
 20 52  1  0
 20 53  1  0
 21 54  1  0
 21 55  1  0
 24 56  1  0
 25 57  1  0
 30 58  1  0
 31 59  1  0
 31 60  1  0
 32 61  1  0
 32 62  1  0
 33 63  1  0
 34 64  1  0
 35 65  1  0
 35 66  1  0
 36 67  1  0
 36 68  1  0
M  END
> <Name>
Molecule

> <AbsoluteEnergy>
65.5453

> <Clean Energy>
198.799

> <ConfNumber>
7

> <MOL_NUMBER>
8

> <RelativeEnergy>
3.99629

> <POSE_NUMBER>
57

> <LibDockScore>
114.0337

> <HotSpots>
1.67,-24.32,50.98,A,50,7
-4.73,-22.32,50.38,A,46,15
-9.33,-29.92,51.19,A,52,31

$$$$
Molecule
  SciTegic05072616053D

 68 72  0  0  0  0            999 V2000
   -1.8461  -24.2677   52.7819 C   0  0  0  1  0  0
   -1.9953  -25.5747   51.9794 C   0  0  0  1  0  0
   -0.8023  -25.7774   51.0234 C   0  0  0  1  0  0
   -2.2095  -26.7654   52.8896 C   0  0  0  1  0  0
   -1.2047  -27.0177   53.8524 C   0  0  0  1  0  0
   -1.3170  -28.0765   54.7614 C   0  0  0  1  0  0
   -2.4348  -28.9117   54.7149 C   0  0  0  1  0  0
   -3.4312  -28.6929   53.7556 C   0  0  0  1  0  0
   -3.3614  -27.6182   52.8298 C   0  0  0  1  0  0
   -4.5108  -27.3849   51.8340 C   0  0  0  1  0  0
   -4.0599  -26.6446   50.5583 C   0  0  0  1  0  0
   -3.2120  -27.1001   49.8234 O   0  0  0  1  0  0
   -4.6774  -25.4358   50.2761 N   0  0  0  1  0  0
   -4.6373  -24.6692   49.1249 C   0  0  0  1  0  0
   -5.3352  -23.4346   49.1399 C   0  0  0  1  0  0
   -5.3577  -22.6196   48.0494 N   0  0  0  1  0  0
   -4.6923  -23.0142   46.9269 C   0  0  0  1  0  0
   -3.9929  -24.2407   46.8975 C   0  0  0  1  0  0
   -3.9682  -25.0577   47.9928 N   0  0  0  1  0  0
   -5.6391  -26.5833   52.5914 C   0  0  0  1  0  0
   -7.0739  -27.1019   52.3949 C   0  0  0  1  0  0
   -7.1442  -28.5452   52.7149 N   0  0  0  1  0  0
   -8.0854  -29.0647   53.5710 C   0  0  0  1  0  0
   -8.2672  -28.5092   54.8513 C   0  0  0  1  0  0
   -9.0677  -29.1770   55.7895 C   0  0  0  1  0  0
   -9.6836  -30.3938   55.4461 C   0  0  0  1  0  0
  -10.3342  -31.2307   56.5088 C   0  0  0  1  0  0
   -9.6391  -32.5877   56.5486 C   0  0  0  1  0  0
   -8.4505  -32.6291   56.7757 O   0  0  0  1  0  0
  -10.3256  -33.6991   56.2922 O   0  0  0  1  0  0
  -11.8261  -31.1155   56.7855 C   0  0  0  1  0  0
  -10.8318  -30.6005   57.8012 C   0  0  0  1  0  0
   -9.6441  -30.8508   54.1169 C   0  0  0  1  0  0
   -8.8468  -30.1832   53.1793 C   0  0  0  1  0  0
   -6.1259  -29.4594   52.1378 C   0  0  0  1  0  0
   -5.1156  -28.7222   51.2497 C   0  0  0  1  0  0
   -1.7917  -23.4315   52.0848 H   0  0
   -0.9215  -24.3123   53.3574 H   0  0
   -2.6957  -24.1382   53.4524 H   0  0
   -2.8902  -25.4891   51.3630 H   0  0
    0.1159  -25.8127   51.6097 H   0  0
   -0.7543  -24.9320   50.3371 H   0  0
   -0.9218  -26.7048   50.4633 H   0  0
   -0.3252  -26.3748   53.8874 H   0  0
   -0.5356  -28.2479   55.5018 H   0  0
   -2.5318  -29.7333   55.4246 H   0  0
   -4.2863  -29.3679   53.7183 H   0  0
   -5.2752  -25.0353   51.0680 H   0  0
   -5.8646  -23.1319   50.0433 H   0  0
   -4.7002  -22.3765   46.0430 H   0  0
   -3.4667  -24.5392   45.9908 H   0  0
   -5.6017  -25.5421   52.2709 H   0  0
   -5.4131  -26.5888   53.6577 H   0  0
   -7.3770  -26.9470   51.3594 H   0  0
   -7.7498  -26.5535   53.0510 H   0  0
   -7.7886  -27.5653   55.1122 H   0  0
   -9.2123  -28.7535   56.7834 H   0  0
  -10.7440  -33.5374   55.3428 H   0  0
  -12.2518  -32.0719   57.0891 H   0  0
  -12.2765  -30.3026   56.2159 H   0  0
  -10.7542  -29.5136   57.7723 H   0  0
  -10.7283  -31.2834   58.6444 H   0  0
  -10.2307  -31.7196   53.8182 H   0  0
   -8.8153  -30.5291   52.1461 H   0  0
   -6.6283  -30.2241   51.5454 H   0  0
   -5.5918  -29.9541   52.9491 H   0  0
   -4.2956  -29.4041   51.0245 H   0  0
   -5.5961  -28.4972   50.2975 H   0  0
  1  2  1  0
  2  3  1  0
  2  4  1  0
  4  5  2  0
  4  9  1  0
  5  6  1  0
  6  7  2  0
  7  8  1  0
  8  9  2  0
  9 10  1  0
 10 11  1  0
 10 20  1  0
 10 36  1  0
 11 12  2  0
 11 13  1  0
 13 14  1  0
 14 15  2  0
 14 19  1  0
 15 16  1  0
 16 17  2  0
 17 18  1  0
 18 19  2  0
 20 21  1  0
 21 22  1  0
 22 23  1  0
 22 35  1  0
 23 24  2  0
 23 34  1  0
 24 25  1  0
 25 26  2  0
 26 27  1  0
 26 33  1  0
 27 28  1  0
 27 31  1  0
 27 32  1  0
 28 29  2  0
 28 30  1  0
 31 32  1  0
 33 34  2  0
 35 36  1  0
  1 37  1  0
  1 38  1  0
  1 39  1  0
  2 40  1  0
  3 41  1  0
  3 42  1  0
  3 43  1  0
  5 44  1  0
  6 45  1  0
  7 46  1  0
  8 47  1  0
 13 48  1  0
 15 49  1  0
 17 50  1  0
 18 51  1  0
 20 52  1  0
 20 53  1  0
 21 54  1  0
 21 55  1  0
 24 56  1  0
 25 57  1  0
 30 58  1  0
 31 59  1  0
 31 60  1  0
 32 61  1  0
 32 62  1  0
 33 63  1  0
 34 64  1  0
 35 65  1  0
 35 66  1  0
 36 67  1  0
 36 68  1  0
M  END
> <Name>
Molecule

> <AbsoluteEnergy>
74.537

> <Clean Energy>
198.799

> <ConfNumber>
61

> <MOL_NUMBER>
8

> <RelativeEnergy>
12.988

> <POSE_NUMBER>
58

> <LibDockScore>
114.031

> <HotSpots>
-0.33,-25.52,53.19,A,64,3
-6.33,-26.32,51.98,A,57,21
-9.53,-30.12,52.78,A,62,33

$$$$
Molecule
  SciTegic05072616053D

 68 72  0  0  0  0            999 V2000
   -1.5862  -23.4841   47.0278 C   0  0  0  1  0  0
   -1.3652  -24.8674   47.6726 C   0  0  0  1  0  0
   -1.2162  -25.9567   46.5897 C   0  0  0  1  0  0
   -0.1941  -24.8608   48.6335 C   0  0  0  1  0  0
    1.0793  -24.6281   48.0683 C   0  0  0  1  0  0
    2.2263  -24.5516   48.8635 C   0  0  0  1  0  0
    2.1173  -24.6973   50.2480 C   0  0  0  1  0  0
    0.8669  -24.9390   50.8296 C   0  0  0  1  0  0
   -0.3119  -25.0657   50.0502 C   0  0  0  1  0  0
   -1.6506  -25.4039   50.7301 C   0  0  0  1  0  0
   -2.6824  -24.2854   50.4680 C   0  0  0  1  0  0
   -2.3019  -23.1976   50.0913 O   0  0  0  1  0  0
   -4.0407  -24.5181   50.6571 N   0  0  0  1  0  0
   -5.0740  -23.5970   50.5243 C   0  0  0  1  0  0
   -4.8644  -22.2645   50.0776 C   0  0  0  1  0  0
   -5.9033  -21.3896   49.9427 N   0  0  0  1  0  0
   -7.1586  -21.8105   50.2628 C   0  0  0  1  0  0
   -7.3817  -23.1227   50.7264 C   0  0  0  1  0  0
   -6.3437  -23.9999   50.8545 N   0  0  0  1  0  0
   -2.1217  -26.8199   50.2252 C   0  0  0  1  0  0
   -1.3256  -27.9969   50.8206 C   0  0  0  1  0  0
   -1.4687  -27.9369   52.2915 N   0  0  0  1  0  0
   -2.1930  -28.8737   53.0116 C   0  0  0  1  0  0
   -3.1243  -29.7295   52.3809 C   0  0  0  1  0  0
   -3.9371  -30.5806   53.1484 C   0  0  0  1  0  0
   -3.8234  -30.5861   54.5510 C   0  0  0  1  0  0
   -4.7818  -31.3861   55.4023 C   0  0  0  1  0  0
   -6.1576  -30.7093   55.5130 C   0  0  0  1  0  0
   -6.2138  -29.4975   55.5360 O   0  0  0  1  0  0
   -7.2699  -31.4419   55.5878 O   0  0  0  1  0  0
   -4.6737  -32.9054   55.4034 C   0  0  0  1  0  0
   -4.2372  -32.1198   56.6177 C   0  0  0  1  0  0
   -2.8299  -29.8118   55.1733 C   0  0  0  1  0  0
   -2.0230  -28.9589   54.4097 C   0  0  0  1  0  0
   -0.8742  -26.7256   52.8960 C   0  0  0  1  0  0
   -1.5668  -25.4757   52.3050 C   0  0  0  1  0  0
   -2.4893  -23.5174   46.4184 H   0  0
   -0.7334  -23.2498   46.3907 H   0  0
   -1.6900  -22.7233   47.8014 H   0  0
   -2.2495  -25.1054   48.2638 H   0  0
   -0.3651  -25.7110   45.9547 H   0  0
   -2.1210  -25.9786   45.9823 H   0  0
   -1.0606  -26.9293   47.0566 H   0  0
    1.1695  -24.5056   46.9890 H   0  0
    3.2003  -24.3792   48.4055 H   0  0
    3.0053  -24.6229   50.8757 H   0  0
    0.7969  -25.0326   51.9133 H   0  0
   -4.3206  -25.5129   50.9346 H   0  0
   -3.8536  -21.9344   49.8378 H   0  0
   -7.9998  -21.1250   50.1593 H   0  0
   -8.3920  -23.4398   50.9849 H   0  0
   -2.0365  -26.8536   49.1391 H   0  0
   -3.1754  -26.9491   50.4725 H   0  0
   -0.2738  -27.9047   50.5498 H   0  0
   -1.7300  -28.9389   50.4501 H   0  0
   -3.2124  -29.7292   51.2945 H   0  0
   -4.6558  -31.2367   52.6573 H   0  0
   -7.1113  -32.0720   56.4126 H   0  0
   -3.8205  -33.2459   54.8167 H   0  0
   -5.6457  -33.3746   55.5558 H   0  0
   -4.9758  -32.1727   57.4176 H   0  0
   -3.1516  -32.0427   56.6779 H   0  0
   -2.6869  -29.8749   56.2520 H   0  0
   -1.2579  -28.3564   54.8992 H   0  0
   -1.0217  -26.7469   53.9758 H   0  0
    0.1919  -26.6906   52.6719 H   0  0
   -1.0429  -24.5900   52.6644 H   0  0
   -2.5775  -25.4195   52.7092 H   0  0
  1  2  1  0
  2  3  1  0
  2  4  1  0
  4  5  2  0
  4  9  1  0
  5  6  1  0
  6  7  2  0
  7  8  1  0
  8  9  2  0
  9 10  1  0
 10 11  1  0
 10 20  1  0
 10 36  1  0
 11 12  2  0
 11 13  1  0
 13 14  1  0
 14 15  2  0
 14 19  1  0
 15 16  1  0
 16 17  2  0
 17 18  1  0
 18 19  2  0
 20 21  1  0
 21 22  1  0
 22 23  1  0
 22 35  1  0
 23 24  2  0
 23 34  1  0
 24 25  1  0
 25 26  2  0
 26 27  1  0
 26 33  1  0
 27 28  1  0
 27 31  1  0
 27 32  1  0
 28 29  2  0
 28 30  1  0
 31 32  1  0
 33 34  2  0
 35 36  1  0
  1 37  1  0
  1 38  1  0
  1 39  1  0
  2 40  1  0
  3 41  1  0
  3 42  1  0
  3 43  1  0
  5 44  1  0
  6 45  1  0
  7 46  1  0
  8 47  1  0
 13 48  1  0
 15 49  1  0
 17 50  1  0
 18 51  1  0
 20 52  1  0
 20 53  1  0
 21 54  1  0
 21 55  1  0
 24 56  1  0
 25 57  1  0
 30 58  1  0
 31 59  1  0
 31 60  1  0
 32 61  1  0
 32 62  1  0
 33 63  1  0
 34 64  1  0
 35 65  1  0
 35 66  1  0
 36 67  1  0
 36 68  1  0
M  END
> <Name>
Molecule

> <AbsoluteEnergy>
71.2663

> <Clean Energy>
198.799

> <ConfNumber>
35

> <MOL_NUMBER>
8

> <RelativeEnergy>
9.71728

> <POSE_NUMBER>
59

> <LibDockScore>
113.9768

> <HotSpots>
-2.93,-26.32,45.98,A,15,3
-6.13,-22.12,49.98,A,41,15
-4.13,-31.12,56.59,A,79,32

$$$$
Molecule
  SciTegic05072616053D

 68 72  0  0  0  0            999 V2000
   -1.3229  -21.1257   46.6737 C   0  0  0  1  0  0
   -1.8144  -22.2246   47.6464 C   0  0  0  1  0  0
   -3.1634  -22.7873   47.1584 C   0  0  0  1  0  0
   -0.8285  -23.3440   47.9072 C   0  0  0  1  0  0
    0.3541  -23.3569   47.1245 C   0  0  0  1  0  0
    1.3268  -24.3539   47.2693 C   0  0  0  1  0  0
    1.1350  -25.3788   48.1947 C   0  0  0  1  0  0
   -0.0248  -25.3956   48.9728 C   0  0  0  1  0  0
   -1.0248  -24.3919   48.8721 C   0  0  0  1  0  0
   -2.2100  -24.6126   49.8280 C   0  0  0  1  0  0
   -1.6709  -25.4103   51.0378 C   0  0  0  1  0  0
   -0.7573  -24.9096   51.6595 O   0  0  0  1  0  0
   -2.1861  -26.6455   51.4179 N   0  0  0  1  0  0
   -1.8741  -27.3739   52.5639 C   0  0  0  1  0  0
   -2.3326  -28.7133   52.6782 C   0  0  0  1  0  0
   -2.0773  -29.4622   53.7888 N   0  0  0  1  0  0
   -1.3590  -28.9028   54.8021 C   0  0  0  1  0  0
   -0.8850  -27.5803   54.7036 C   0  0  0  1  0  0
   -1.1445  -26.8319   53.5928 N   0  0  0  1  0  0
   -2.8903  -23.3956   50.5363 C   0  0  0  1  0  0
   -4.0680  -23.8143   51.4650 C   0  0  0  1  0  0
   -4.8858  -24.9059   50.8527 N   0  0  0  1  0  0
   -5.6161  -25.8448   51.5781 C   0  0  0  1  0  0
   -6.9805  -26.0769   51.2855 C   0  0  0  1  0  0
   -7.6780  -27.1263   51.9044 C   0  0  0  1  0  0
   -7.0243  -27.9610   52.8253 C   0  0  0  1  0  0
   -7.7361  -29.1681   53.3923 C   0  0  0  1  0  0
   -7.9843  -30.2287   52.3228 C   0  0  0  1  0  0
   -7.0323  -30.8103   51.8551 O   0  0  0  1  0  0
   -9.2239  -30.4972   51.9094 O   0  0  0  1  0  0
   -7.4060  -29.6499   54.7977 C   0  0  0  1  0  0
   -8.7270  -28.9754   54.5303 C   0  0  0  1  0  0
   -5.6977  -27.6778   53.1951 C   0  0  0  1  0  0
   -5.0081  -26.6156   52.5934 C   0  0  0  1  0  0
   -4.7878  -24.9823   49.3749 C   0  0  0  1  0  0
   -3.3345  -25.2918   48.9575 C   0  0  0  1  0  0
   -2.0583  -20.3221   46.6340 H   0  0
   -1.1994  -21.5523   45.6783 H   0  0
   -0.3687  -20.7292   47.0208 H   0  0
   -1.9308  -21.7321   48.6118 H   0  0
   -3.0391  -23.2131   46.1627 H   0  0
   -3.8979  -21.9830   47.1185 H   0  0
   -3.5076  -23.5609   47.8448 H   0  0
    0.5105  -22.5679   46.3889 H   0  0
    2.2307  -24.3287   46.6606 H   0  0
    1.8848  -26.1615   48.3102 H   0  0
   -0.1679  -26.2093   49.6838 H   0  0
   -2.9023  -27.0855   50.7558 H   0  0
   -2.9018  -29.1528   51.8591 H   0  0
   -1.1488  -29.4852   55.6991 H   0  0
   -0.3061  -27.1512   55.5214 H   0  0
   -2.1434  -22.8670   51.1286 H   0  0
   -3.2649  -22.7071   49.7788 H   0  0
   -4.7062  -22.9500   51.6486 H   0  0
   -3.6679  -24.1593   52.4184 H   0  0
   -7.4958  -25.4340   50.5718 H   0  0
   -8.7292  -27.2936   51.6697 H   0  0
   -9.5987  -29.5699   51.5899 H   0  0
   -6.7051  -28.9799   55.2957 H   0  0
   -7.5159  -30.7308   54.8852 H   0  0
   -9.5433  -29.6957   54.4761 H   0  0
   -8.7322  -27.9447   54.8850 H   0  0
   -5.2035  -28.2863   53.9524 H   0  0
   -3.9923  -26.3823   52.9125 H   0  0
   -5.4449  -25.7711   49.0088 H   0  0
   -5.0934  -24.0302   48.9411 H   0  0
   -3.2013  -24.9871   47.9195 H   0  0
   -3.1906  -26.3719   48.9844 H   0  0
  1  2  1  0
  2  3  1  0
  2  4  1  0
  4  5  2  0
  4  9  1  0
  5  6  1  0
  6  7  2  0
  7  8  1  0
  8  9  2  0
  9 10  1  0
 10 11  1  0
 10 20  1  0
 10 36  1  0
 11 12  2  0
 11 13  1  0
 13 14  1  0
 14 15  2  0
 14 19  1  0
 15 16  1  0
 16 17  2  0
 17 18  1  0
 18 19  2  0
 20 21  1  0
 21 22  1  0
 22 23  1  0
 22 35  1  0
 23 24  2  0
 23 34  1  0
 24 25  1  0
 25 26  2  0
 26 27  1  0
 26 33  1  0
 27 28  1  0
 27 31  1  0
 27 32  1  0
 28 29  2  0
 28 30  1  0
 31 32  1  0
 33 34  2  0
 35 36  1  0
  1 37  1  0
  1 38  1  0
  1 39  1  0
  2 40  1  0
  3 41  1  0
  3 42  1  0
  3 43  1  0
  5 44  1  0
  6 45  1  0
  7 46  1  0
  8 47  1  0
 13 48  1  0
 15 49  1  0
 17 50  1  0
 18 51  1  0
 20 52  1  0
 20 53  1  0
 21 54  1  0
 21 55  1  0
 24 56  1  0
 25 57  1  0
 30 58  1  0
 31 59  1  0
 31 60  1  0
 32 61  1  0
 32 62  1  0
 33 63  1  0
 34 64  1  0
 35 65  1  0
 35 66  1  0
 36 67  1  0
 36 68  1  0
M  END
> <Name>
Molecule

> <AbsoluteEnergy>
78.9715

> <Clean Energy>
198.799

> <ConfNumber>
94

> <MOL_NUMBER>
8

> <RelativeEnergy>
17.4225

> <POSE_NUMBER>
60

> <LibDockScore>
113.4725

> <HotSpots>
-3.53,-22.32,46.59,A,20,3
0.27,-24.92,46.38,A,19,6
-0.93,-28.12,54.98,A,74,17

$$$$
Molecule
  SciTegic05072616053D

 68 72  0  0  0  0            999 V2000
  -10.3154  -30.9063   57.9814 C   0  0  0  1  0  0
   -9.4451  -31.1863   56.7383 C   0  0  0  1  0  0
   -8.8514  -32.6075   56.7813 C   0  0  0  1  0  0
  -10.2003  -30.9233   55.4528 C   0  0  0  1  0  0
  -11.3043  -31.7666   55.1879 C   0  0  0  1  0  0
  -12.0867  -31.6025   54.0412 C   0  0  0  1  0  0
  -11.7834  -30.5801   53.1397 C   0  0  0  1  0  0
  -10.6936  -29.7330   53.3807 C   0  0  0  1  0  0
   -9.8644  -29.8847   54.5209 C   0  0  0  1  0  0
   -8.6653  -28.9458   54.7239 C   0  0  0  1  0  0
   -8.6036  -28.4258   56.1700 C   0  0  0  1  0  0
   -7.5963  -28.6232   56.8134 O   0  0  0  1  0  0
   -9.6824  -27.7473   56.7240 N   0  0  0  1  0  0
   -9.7449  -27.1252   57.9698 C   0  0  0  1  0  0
   -8.6684  -27.1194   58.9044 C   0  0  0  1  0  0
   -8.7869  -26.5060   60.1201 N   0  0  0  1  0  0
   -9.9592  -25.8811   60.4279 C   0  0  0  1  0  0
  -11.0309  -25.8654   59.5087 C   0  0  0  1  0  0
  -10.9135  -26.4825   58.2963 N   0  0  0  1  0  0
   -8.7127  -27.6193   53.8719 C   0  0  0  1  0  0
   -8.3043  -27.7392   52.3837 C   0  0  0  1  0  0
   -7.0000  -28.4363   52.2838 N   0  0  0  1  0  0
   -5.8301  -27.8464   51.8008 C   0  0  0  1  0  0
   -4.6379  -28.5940   51.6599 C   0  0  0  1  0  0
   -3.4394  -27.9766   51.2621 C   0  0  0  1  0  0
   -3.4123  -26.5996   50.9750 C   0  0  0  1  0  0
   -2.1123  -25.9183   50.6135 C   0  0  0  1  0  0
   -1.3543  -25.4406   51.8459 C   0  0  0  1  0  0
   -1.1353  -26.2264   52.7416 O   0  0  0  1  0  0
   -0.9559  -24.1629   51.9185 O   0  0  0  1  0  0
   -1.3062  -26.4038   49.4135 C   0  0  0  1  0  0
   -2.0434  -25.0884   49.3393 C   0  0  0  1  0  0
   -4.6024  -25.8570   51.0433 C   0  0  0  1  0  0
   -5.7983  -26.4718   51.4564 C   0  0  0  1  0  0
   -7.0573  -29.8087   52.8420 C   0  0  0  1  0  0
   -7.3407  -29.7029   54.3481 C   0  0  0  1  0  0
   -9.6981  -31.0166   58.8730 H   0  0
  -11.1228  -31.6377   58.0154 H   0  0
  -10.7272  -29.8981   57.9353 H   0  0
   -8.6094  -30.4867   56.7576 H   0  0
   -9.6689  -33.3272   56.8236 H   0  0
   -8.2442  -32.7061   57.6811 H   0  0
   -8.2402  -32.7889   55.8972 H   0  0
  -11.5502  -32.5610   55.8925 H   0  0
  -12.9285  -32.2686   53.8519 H   0  0
  -12.3947  -30.4409   52.2481 H   0  0
  -10.4770  -28.9344   52.6712 H   0  0
  -10.5675  -27.6965   56.1249 H   0  0
   -7.7324  -27.6138   58.6444 H   0  0
  -10.0701  -25.3884   61.3939 H   0  0
  -11.9591  -25.3567   59.7689 H   0  0
   -9.7239  -27.2150   53.9187 H   0  0
   -8.0671  -26.8801   54.3461 H   0  0
   -9.0616  -28.3074   51.8436 H   0  0
   -8.2177  -26.7437   51.9482 H   0  0
   -4.6486  -29.6649   51.8628 H   0  0
   -2.5273  -28.5671   51.1757 H   0  0
   -1.8329  -23.5987   51.7958 H   0  0
   -1.8311  -27.1906   48.8717 H   0  0
   -0.2368  -26.2581   49.5662 H   0  0
   -1.3667  -24.2411   49.4499 H   0  0
   -2.9610  -25.1735   48.7572 H   0  0
   -4.5994  -24.8005   50.7752 H   0  0
   -6.7137  -25.8827   51.5125 H   0  0
   -6.1024  -30.3100   52.6842 H   0  0
   -7.8575  -30.3685   52.3578 H   0  0
   -7.3820  -30.7091   54.7651 H   0  0
   -6.5015  -29.1963   54.8248 H   0  0
  1  2  1  0
  2  3  1  0
  2  4  1  0
  4  5  2  0
  4  9  1  0
  5  6  1  0
  6  7  2  0
  7  8  1  0
  8  9  2  0
  9 10  1  0
 10 11  1  0
 10 20  1  0
 10 36  1  0
 11 12  2  0
 11 13  1  0
 13 14  1  0
 14 15  2  0
 14 19  1  0
 15 16  1  0
 16 17  2  0
 17 18  1  0
 18 19  2  0
 20 21  1  0
 21 22  1  0
 22 23  1  0
 22 35  1  0
 23 24  2  0
 23 34  1  0
 24 25  1  0
 25 26  2  0
 26 27  1  0
 26 33  1  0
 27 28  1  0
 27 31  1  0
 27 32  1  0
 28 29  2  0
 28 30  1  0
 31 32  1  0
 33 34  2  0
 35 36  1  0
  1 37  1  0
  1 38  1  0
  1 39  1  0
  2 40  1  0
  3 41  1  0
  3 42  1  0
  3 43  1  0
  5 44  1  0
  6 45  1  0
  7 46  1  0
  8 47  1  0
 13 48  1  0
 15 49  1  0
 17 50  1  0
 18 51  1  0
 20 52  1  0
 20 53  1  0
 21 54  1  0
 21 55  1  0
 24 56  1  0
 25 57  1  0
 30 58  1  0
 31 59  1  0
 31 60  1  0
 32 61  1  0
 32 62  1  0
 33 63  1  0
 34 64  1  0
 35 65  1  0
 35 66  1  0
 36 67  1  0
 36 68  1  0
M  END
> <Name>
Molecule

> <AbsoluteEnergy>
65.9277

> <Clean Energy>
198.799

> <ConfNumber>
10

> <MOL_NUMBER>
8

> <RelativeEnergy>
4.37872

> <POSE_NUMBER>
61

> <LibDockScore>
113.4068

> <HotSpots>
-11.53,-32.52,54.78,A,71,6
-7.73,-27.92,56.98,P,70,12
-6.33,-26.32,51.98,A,57,34

$$$$
Molecule
  SciTegic05072616053D

 68 72  0  0  0  0            999 V2000
   -0.8581  -26.6246   54.2854 C   0  0  0  1  0  0
   -1.3745  -25.9562   52.9975 C   0  0  0  1  0  0
   -0.2244  -25.3370   52.1793 C   0  0  0  1  0  0
   -2.2102  -26.9028   52.1655 C   0  0  0  1  0  0
   -2.1465  -28.2720   52.5154 C   0  0  0  1  0  0
   -2.8350  -29.2441   51.7821 C   0  0  0  1  0  0
   -3.5872  -28.8632   50.6705 C   0  0  0  1  0  0
   -3.6727  -27.5112   50.3149 C   0  0  0  1  0  0
   -3.0351  -26.4904   51.0684 C   0  0  0  1  0  0
   -3.2413  -25.0069   50.6888 C   0  0  0  1  0  0
   -2.0242  -24.5014   49.9119 C   0  0  0  1  0  0
   -1.4660  -23.4841   50.2590 O   0  0  0  1  0  0
   -1.5883  -25.2336   48.8149 N   0  0  0  1  0  0
   -0.3607  -25.1553   48.1719 C   0  0  0  1  0  0
   -0.2433  -25.6779   46.8579 C   0  0  0  1  0  0
    0.9385  -25.6342   46.1796 N   0  0  0  1  0  0
    2.0200  -25.0734   46.7904 C   0  0  0  1  0  0
    1.9203  -24.5495   48.0950 C   0  0  0  1  0  0
    0.7378  -24.5948   48.7716 N   0  0  0  1  0  0
   -4.4800  -24.7074   49.7497 C   0  0  0  1  0  0
   -5.8378  -24.5155   50.4778 C   0  0  0  1  0  0
   -5.8156  -25.2296   51.7805 N   0  0  0  1  0  0
   -6.5201  -26.4061   52.0364 C   0  0  0  1  0  0
   -6.0348  -27.3604   52.9613 C   0  0  0  1  0  0
   -6.6029  -28.6424   53.0295 C   0  0  0  1  0  0
   -7.6811  -28.9757   52.1929 C   0  0  0  1  0  0
   -8.1726  -30.3945   52.0997 C   0  0  0  1  0  0
   -6.9981  -31.3375   51.8685 C   0  0  0  1  0  0
   -7.0045  -32.0529   50.8941 O   0  0  0  1  0  0
   -5.9757  -31.3449   52.7201 O   0  0  0  1  0  0
   -9.5028  -30.6971   51.4327 C   0  0  0  1  0  0
   -9.3580  -30.8622   52.9267 C   0  0  0  1  0  0
   -8.2826  -27.9825   51.4049 C   0  0  0  1  0  0
   -7.7113  -26.7058   51.3325 C   0  0  0  1  0  0
   -4.8198  -24.6541   52.7351 C   0  0  0  1  0  0
   -3.5615  -24.1588   51.9709 C   0  0  0  1  0  0
   -0.3469  -25.8722   54.8860 H   0  0
   -0.1455  -27.4024   54.0111 H   0  0
   -1.6855  -27.0558   54.8490 H   0  0
   -2.0302  -25.1401   53.3011 H   0  0
    0.4829  -26.1257   51.9227 H   0  0
    0.2815  -24.5955   52.7976 H   0  0
   -0.6101  -24.8697   51.2732 H   0  0
   -1.5484  -28.5759   53.3745 H   0  0
   -2.7842  -30.2922   52.0772 H   0  0
   -4.1077  -29.6168   50.0795 H   0  0
   -4.2472  -27.2336   49.4312 H   0  0
   -2.2829  -25.9439   48.4175 H   0  0
   -1.1162  -26.1236   46.3809 H   0  0
    2.9733  -25.0295   46.2638 H   0  0
    2.7962  -24.1043   48.5669 H   0  0
   -4.2681  -23.8093   49.1696 H   0  0
   -4.5826  -25.5246   49.0357 H   0  0
   -6.0099  -23.4531   50.6503 H   0  0
   -6.6416  -24.9154   49.8597 H   0  0
   -5.2125  -27.0979   53.6269 H   0  0
   -6.2081  -29.3779   53.7304 H   0  0
   -6.4108  -31.5361   53.6564 H   0  0
   -9.4837  -31.6580   50.9184 H   0  0
  -10.0403  -29.7833   51.1794 H   0  0
   -9.8188  -30.0365   53.4689 H   0  0
   -9.2606  -31.9108   53.2078 H   0  0
   -9.1938  -28.2045   50.8495 H   0  0
   -8.1889  -25.9348   50.7278 H   0  0
   -5.2716  -23.8168   53.2669 H   0  0
   -4.5265  -25.4172   53.4560 H   0  0
   -2.7038  -24.1949   52.6425 H   0  0
   -3.7119  -23.1191   51.6803 H   0  0
  1  2  1  0
  2  3  1  0
  2  4  1  0
  4  5  2  0
  4  9  1  0
  5  6  1  0
  6  7  2  0
  7  8  1  0
  8  9  2  0
  9 10  1  0
 10 11  1  0
 10 20  1  0
 10 36  1  0
 11 12  2  0
 11 13  1  0
 13 14  1  0
 14 15  2  0
 14 19  1  0
 15 16  1  0
 16 17  2  0
 17 18  1  0
 18 19  2  0
 20 21  1  0
 21 22  1  0
 22 23  1  0
 22 35  1  0
 23 24  2  0
 23 34  1  0
 24 25  1  0
 25 26  2  0
 26 27  1  0
 26 33  1  0
 27 28  1  0
 27 31  1  0
 27 32  1  0
 28 29  2  0
 28 30  1  0
 31 32  1  0
 33 34  2  0
 35 36  1  0
  1 37  1  0
  1 38  1  0
  1 39  1  0
  2 40  1  0
  3 41  1  0
  3 42  1  0
  3 43  1  0
  5 44  1  0
  6 45  1  0
  7 46  1  0
  8 47  1  0
 13 48  1  0
 15 49  1  0
 17 50  1  0
 18 51  1  0
 20 52  1  0
 20 53  1  0
 21 54  1  0
 21 55  1  0
 24 56  1  0
 25 57  1  0
 30 58  1  0
 31 59  1  0
 31 60  1  0
 32 61  1  0
 32 62  1  0
 33 63  1  0
 34 64  1  0
 35 65  1  0
 35 66  1  0
 36 67  1  0
 36 68  1  0
M  END
> <Name>
Molecule

> <AbsoluteEnergy>
70.1121

> <Clean Energy>
198.799

> <ConfNumber>
26

> <MOL_NUMBER>
8

> <RelativeEnergy>
8.56315

> <POSE_NUMBER>
62

> <LibDockScore>
113.2261

> <HotSpots>
2.67,-23.92,48.98,A,32,18
-5.33,-24.12,49.78,A,36,21
-9.53,-30.12,52.78,A,62,32

$$$$
Molecule
  SciTegic05072616053D

 68 72  0  0  0  0            999 V2000
   -4.3827  -21.7320   50.7738 C   0  0  0  1  0  0
   -5.3829  -22.7200   50.1372 C   0  0  0  1  0  0
   -6.8209  -22.1691   50.3078 C   0  0  0  1  0  0
   -4.9738  -23.0878   48.7152 C   0  0  0  1  0  0
   -5.5692  -22.3104   47.6853 C   0  0  0  1  0  0
   -5.3253  -22.5515   46.3300 C   0  0  0  1  0  0
   -4.4684  -23.5833   45.9642 C   0  0  0  1  0  0
   -3.8462  -24.3552   46.9526 C   0  0  0  1  0  0
   -4.0369  -24.1341   48.3531 C   0  0  0  1  0  0
   -3.1794  -25.0104   49.3211 C   0  0  0  1  0  0
   -1.7325  -24.4592   49.2612 C   0  0  0  1  0  0
   -1.3192  -23.7993   50.1878 O   0  0  0  1  0  0
   -0.9101  -24.6837   48.1547 N   0  0  0  1  0  0
    0.4815  -24.5499   48.0738 C   0  0  0  1  0  0
    1.1347  -24.7654   46.8282 C   0  0  0  1  0  0
    2.4856  -24.6125   46.6850 N   0  0  0  1  0  0
    3.2154  -24.2476   47.7712 C   0  0  0  1  0  0
    2.5895  -24.0259   49.0130 C   0  0  0  1  0  0
    1.2409  -24.1800   49.1578 N   0  0  0  1  0  0
   -3.2494  -26.5387   48.9238 C   0  0  0  1  0  0
   -2.7149  -27.5950   49.9324 C   0  0  0  1  0  0
   -3.2397  -27.4124   51.3147 N   0  0  0  1  0  0
   -3.8150  -28.4342   52.1059 C   0  0  0  1  0  0
   -3.7699  -28.3669   53.5240 C   0  0  0  1  0  0
   -4.3923  -29.3419   54.3319 C   0  0  0  1  0  0
   -5.0816  -30.4197   53.7497 C   0  0  0  1  0  0
   -5.8364  -31.4197   54.6213 C   0  0  0  1  0  0
   -5.0822  -32.6947   55.0262 C   0  0  0  1  0  0
   -5.1311  -33.1003   56.1725 O   0  0  0  1  0  0
   -4.3974  -33.3829   54.1096 O   0  0  0  1  0  0
   -6.8722  -30.8772   55.5972 C   0  0  0  1  0  0
   -7.3235  -31.5976   54.3546 C   0  0  0  1  0  0
   -5.0851  -30.5377   52.3462 C   0  0  0  1  0  0
   -4.4637  -29.5591   51.5360 C   0  0  0  1  0  0
   -3.0694  -26.0161   51.7903 C   0  0  0  1  0  0
   -3.6848  -24.9989   50.8042 C   0  0  0  1  0  0
   -4.6038  -21.6191   51.8352 H   0  0
   -4.4602  -20.7630   50.2808 H   0  0
   -3.3696  -22.1165   50.6556 H   0  0
   -5.3680  -23.6776   50.6576 H   0  0
   -6.9038  -21.2010   49.8138 H   0  0
   -7.0474  -22.0572   51.3681 H   0  0
   -7.5302  -22.8646   49.8592 H   0  0
   -6.2400  -21.4970   47.9620 H   0  0
   -5.8025  -21.9362   45.5672 H   0  0
   -4.2815  -23.7907   44.9106 H   0  0
   -3.1848  -25.1633   46.6402 H   0  0
   -1.4042  -24.9964   47.2586 H   0  0
    0.5408  -25.0609   45.9633 H   0  0
    4.2947  -24.1254   47.6807 H   0  0
    3.1909  -23.7268   49.8715 H   0  0
   -2.7139  -26.6702   47.9836 H   0  0
   -4.2876  -26.7831   48.6989 H   0  0
   -1.6266  -27.5408   49.9597 H   0  0
   -2.9883  -28.5899   49.5811 H   0  0
   -3.2411  -27.5412   54.0001 H   0  0
   -4.3381  -29.2586   55.4174 H   0  0
   -3.7292  -32.6852   53.6982 H   0  0
   -6.9849  -29.7973   55.5007 H   0  0
   -6.9554  -31.5083   56.4820 H   0  0
   -7.6503  -32.6140   54.5741 H   0  0
   -7.6782  -30.9037   53.5925 H   0  0
   -5.5725  -31.3934   51.8789 H   0  0
   -4.4838  -29.6718   50.4520 H   0  0
   -3.5510  -25.9083   52.7622 H   0  0
   -2.0065  -25.8039   51.9057 H   0  0
   -3.5290  -23.9989   51.2089 H   0  0
   -4.7649  -25.1455   50.7976 H   0  0
  1  2  1  0
  2  3  1  0
  2  4  1  0
  4  5  2  0
  4  9  1  0
  5  6  1  0
  6  7  2  0
  7  8  1  0
  8  9  2  0
  9 10  1  0
 10 11  1  0
 10 20  1  0
 10 36  1  0
 11 12  2  0
 11 13  1  0
 13 14  1  0
 14 15  2  0
 14 19  1  0
 15 16  1  0
 16 17  2  0
 17 18  1  0
 18 19  2  0
 20 21  1  0
 21 22  1  0
 22 23  1  0
 22 35  1  0
 23 24  2  0
 23 34  1  0
 24 25  1  0
 25 26  2  0
 26 27  1  0
 26 33  1  0
 27 28  1  0
 27 31  1  0
 27 32  1  0
 28 29  2  0
 28 30  1  0
 31 32  1  0
 33 34  2  0
 35 36  1  0
  1 37  1  0
  1 38  1  0
  1 39  1  0
  2 40  1  0
  3 41  1  0
  3 42  1  0
  3 43  1  0
  5 44  1  0
  6 45  1  0
  7 46  1  0
  8 47  1  0
 13 48  1  0
 15 49  1  0
 17 50  1  0
 18 51  1  0
 20 52  1  0
 20 53  1  0
 21 54  1  0
 21 55  1  0
 24 56  1  0
 25 57  1  0
 30 58  1  0
 31 59  1  0
 31 60  1  0
 32 61  1  0
 32 62  1  0
 33 63  1  0
 34 64  1  0
 35 65  1  0
 35 66  1  0
 36 67  1  0
 36 68  1  0
M  END
> <Name>
Molecule

> <AbsoluteEnergy>
76.9066

> <Clean Energy>
198.799

> <ConfNumber>
82

> <MOL_NUMBER>
8

> <RelativeEnergy>
15.3576

> <POSE_NUMBER>
63

> <LibDockScore>
113.01

> <HotSpots>
-3.33,-21.92,50.38,A,47,1
2.67,-22.92,49.98,A,39,18
-4.93,-33.72,54.59,P,51,30

$$$$
Molecule
  SciTegic05072616053D

 68 72  0  0  0  0            999 V2000
    0.0950  -25.3323   46.2269 C   0  0  0  1  0  0
    0.1950  -25.2505   47.7611 C   0  0  0  1  0  0
    1.5328  -25.8195   48.2740 C   0  0  0  1  0  0
   -0.9920  -25.8992   48.4378 C   0  0  0  1  0  0
   -1.1134  -27.2984   48.2755 C   0  0  0  1  0  0
   -2.1761  -28.0080   48.8430 C   0  0  0  1  0  0
   -3.1476  -27.3257   49.5762 C   0  0  0  1  0  0
   -3.0490  -25.9396   49.7433 C   0  0  0  1  0  0
   -1.9703  -25.1874   49.2105 C   0  0  0  1  0  0
   -1.8836  -23.6716   49.4758 C   0  0  0  1  0  0
   -1.0917  -22.9512   48.3652 C   0  0  0  1  0  0
    0.0621  -22.6516   48.5777 O   0  0  0  1  0  0
   -1.6200  -22.6129   47.1244 N   0  0  0  1  0  0
   -2.8419  -23.0341   46.6462 C   0  0  0  1  0  0
   -3.2063  -24.4023   46.6974 C   0  0  0  1  0  0
   -4.4494  -24.8084   46.3046 N   0  0  0  1  0  0
   -5.3259  -23.8763   45.8349 C   0  0  0  1  0  0
   -4.9535  -22.5197   45.7435 C   0  0  0  1  0  0
   -3.7096  -22.1126   46.1291 N   0  0  0  1  0  0
   -1.2578  -23.4744   50.9038 C   0  0  0  1  0  0
   -2.0943  -24.1425   52.0341 C   0  0  0  1  0  0
   -3.5543  -24.0230   51.7491 N   0  0  0  1  0  0
   -4.4812  -25.0099   52.0795 C   0  0  0  1  0  0
   -5.8581  -24.8324   51.8008 C   0  0  0  1  0  0
   -6.7824  -25.8570   52.0464 C   0  0  0  1  0  0
   -6.3520  -27.0793   52.5887 C   0  0  0  1  0  0
   -7.3394  -28.1995   52.8070 C   0  0  0  1  0  0
   -8.0237  -28.1408   54.1651 C   0  0  0  1  0  0
   -9.1107  -27.6196   54.2550 O   0  0  0  1  0  0
   -7.4162  -28.6647   55.2292 O   0  0  0  1  0  0
   -8.1341  -28.7258   51.6203 C   0  0  0  1  0  0
   -7.0339  -29.5682   52.2167 C   0  0  0  1  0  0
   -4.9959  -27.2526   52.9176 C   0  0  0  1  0  0
   -4.0690  -26.2267   52.6688 C   0  0  0  1  0  0
   -3.8954  -22.8069   50.9768 C   0  0  0  1  0  0
   -3.2646  -22.8988   49.5682 C   0  0  0  1  0  0
    0.1857  -26.3767   45.9284 H   0  0
    0.9213  -24.7678   45.7947 H   0  0
   -0.8567  -24.9256   45.8848 H   0  0
    0.1726  -24.1943   48.0296 H   0  0
    2.3469  -25.2509   47.8245 H   0  0
    1.6113  -26.8598   47.9582 H   0  0
    1.5838  -25.7525   49.3607 H   0  0
   -0.3626  -27.8353   47.6957 H   0  0
   -2.2453  -29.0881   48.7134 H   0  0
   -3.9816  -27.8711   50.0179 H   0  0
   -3.8276  -25.4201   50.3019 H   0  0
   -1.0339  -21.9779   46.4935 H   0  0
   -2.4864  -25.1388   47.0543 H   0  0
   -6.3254  -24.1830   45.5267 H   0  0
   -5.6662  -21.7890   45.3611 H   0  0
   -0.2527  -23.8961   50.9116 H   0  0
   -1.1732  -22.4075   51.1105 H   0  0
   -1.8726  -23.6560   52.9840 H   0  0
   -1.8270  -25.1968   52.1056 H   0  0
   -6.2045  -23.8845   51.3890 H   0  0
   -7.8369  -25.7051   51.8162 H   0  0
   -6.4863  -28.1792   55.2747 H   0  0
   -7.8205  -28.2550   50.6886 H   0  0
   -9.1201  -29.0771   51.9244 H   0  0
   -7.4327  -30.3699   52.8382 H   0  0
   -6.1329  -29.5466   51.6036 H   0  0
   -4.6622  -28.1875   53.3678 H   0  0
   -3.0213  -26.3705   52.9329 H   0  0
   -4.9785  -22.7264   50.8848 H   0  0
   -3.5076  -21.9276   51.4912 H   0  0
   -3.1223  -21.8874   49.1876 H   0  0
   -3.9790  -23.3821   48.9018 H   0  0
  1  2  1  0
  2  3  1  0
  2  4  1  0
  4  5  2  0
  4  9  1  0
  5  6  1  0
  6  7  2  0
  7  8  1  0
  8  9  2  0
  9 10  1  0
 10 11  1  0
 10 20  1  0
 10 36  1  0
 11 12  2  0
 11 13  1  0
 13 14  1  0
 14 15  2  0
 14 19  1  0
 15 16  1  0
 16 17  2  0
 17 18  1  0
 18 19  2  0
 20 21  1  0
 21 22  1  0
 22 23  1  0
 22 35  1  0
 23 24  2  0
 23 34  1  0
 24 25  1  0
 25 26  2  0
 26 27  1  0
 26 33  1  0
 27 28  1  0
 27 31  1  0
 27 32  1  0
 28 29  2  0
 28 30  1  0
 31 32  1  0
 33 34  2  0
 35 36  1  0
  1 37  1  0
  1 38  1  0
  1 39  1  0
  2 40  1  0
  3 41  1  0
  3 42  1  0
  3 43  1  0
  5 44  1  0
  6 45  1  0
  7 46  1  0
  8 47  1  0
 13 48  1  0
 15 49  1  0
 17 50  1  0
 18 51  1  0
 20 52  1  0
 20 53  1  0
 21 54  1  0
 21 55  1  0
 24 56  1  0
 25 57  1  0
 30 58  1  0
 31 59  1  0
 31 60  1  0
 32 61  1  0
 32 62  1  0
 33 63  1  0
 34 64  1  0
 35 65  1  0
 35 66  1  0
 36 67  1  0
 36 68  1  0
M  END
> <Name>
Molecule

> <AbsoluteEnergy>
72.9571

> <Clean Energy>
198.799

> <ConfNumber>
49

> <MOL_NUMBER>
8

> <RelativeEnergy>
11.4081

> <POSE_NUMBER>
64

> <LibDockScore>
112.6344

> <HotSpots>
0.27,-24.92,46.38,A,19,1
-5.53,-22.92,48.98,A,33,18
-6.53,-30.72,51.78,A,56,31

$$$$
Molecule
  SciTegic05072616053D

 68 72  0  0  0  0            999 V2000
   -5.3314  -22.5192   46.9824 C   0  0  0  1  0  0
   -4.5964  -23.3890   48.0308 C   0  0  0  1  0  0
   -3.5932  -22.4973   48.7890 C   0  0  0  1  0  0
   -3.9437  -24.6588   47.5026 C   0  0  0  1  0  0
   -4.0900  -24.9194   46.1146 C   0  0  0  1  0  0
   -3.5208  -26.0398   45.5051 C   0  0  0  1  0  0
   -2.7697  -26.9285   46.2674 C   0  0  0  1  0  0
   -2.6003  -26.6987   47.6344 C   0  0  0  1  0  0
   -3.1871  -25.5913   48.3084 C   0  0  0  1  0  0
   -2.9160  -25.4911   49.8341 C   0  0  0  1  0  0
   -1.5955  -24.7331   50.0704 C   0  0  0  1  0  0
   -1.1134  -24.0683   49.1779 O   0  0  0  1  0  0
   -0.9574  -24.8096   51.3031 N   0  0  0  1  0  0
    0.4085  -24.7431   51.5622 C   0  0  0  1  0  0
    0.8524  -24.7444   52.9111 C   0  0  0  1  0  0
    2.1781  -24.6827   53.2238 N   0  0  0  1  0  0
    3.0874  -24.6184   52.2102 C   0  0  0  1  0  0
    2.6655  -24.6155   50.8653 C   0  0  0  1  0  0
    1.3384  -24.6765   50.5550 N   0  0  0  1  0  0
   -2.7866  -26.9094   50.5023 C   0  0  0  1  0  0
   -4.0742  -27.7524   50.4040 C   0  0  0  1  0  0
   -5.2195  -27.0325   51.0344 N   0  0  0  1  0  0
   -6.0420  -27.6138   51.9955 C   0  0  0  1  0  0
   -5.6426  -28.7814   52.6844 C   0  0  0  1  0  0
   -6.4697  -29.3564   53.6623 C   0  0  0  1  0  0
   -7.7075  -28.7693   53.9767 C   0  0  0  1  0  0
   -8.5817  -29.3742   55.0474 C   0  0  0  1  0  0
   -8.6364  -28.5197   56.3022 C   0  0  0  1  0  0
   -7.6031  -28.1197   56.7881 O   0  0  0  1  0  0
   -9.8246  -28.2305   56.8323 O   0  0  0  1  0  0
   -8.6287  -30.8874   55.1993 C   0  0  0  1  0  0
   -9.8275  -30.1521   54.6527 C   0  0  0  1  0  0
   -8.1193  -27.6120   53.2938 C   0  0  0  1  0  0
   -7.2961  -27.0420   52.3090 C   0  0  0  1  0  0
   -5.4048  -25.6233   50.5785 C   0  0  0  1  0  0
   -4.0680  -24.8561   50.6747 C   0  0  0  1  0  0
   -4.6138  -22.1013   46.2763 H   0  0
   -5.8693  -21.7120   47.4796 H   0  0
   -6.0439  -23.1409   46.4402 H   0  0
   -5.3611  -23.7763   48.7041 H   0  0
   -4.1218  -21.6899   49.2958 H   0  0
   -2.8663  -22.0793   48.0926 H   0  0
   -3.0698  -23.1009   49.5305 H   0  0
   -4.6651  -24.2225   45.5049 H   0  0
   -3.6642  -26.2166   44.4391 H   0  0
   -2.3148  -27.8014   45.7992 H   0  0
   -1.9927  -27.3973   48.2096 H   0  0
   -1.5926  -24.9346   52.1550 H   0  0
    0.1172  -24.7959   53.7141 H   0  0
    4.1513  -24.5687   52.4421 H   0  0
    3.4056  -24.5641   50.0667 H   0  0
   -1.9722  -27.4531   50.0235 H   0  0
   -2.5274  -26.7839   51.5536 H   0  0
   -4.3019  -27.9428   49.3552 H   0  0
   -3.9234  -28.7043   50.9131 H   0  0
   -4.6814  -29.2408   52.4538 H   0  0
   -6.1508  -30.2613   54.1796 H   0  0
  -10.2791  -29.1599   57.0116 H   0  0
   -8.7760  -31.1807   56.2387 H   0  0
   -8.0673  -31.3857   54.4090 H   0  0
   -9.9063  -30.2592   53.5708 H   0  0
  -10.6142  -30.0527   55.4006 H   0  0
   -9.0806  -27.1554   53.5292 H   0  0
   -7.6281  -26.1484   51.7804 H   0  0
   -6.1486  -25.1333   51.2069 H   0  0
   -5.7500  -25.6197   49.5446 H   0  0
   -4.2265  -23.8311   50.3396 H   0  0
   -3.7607  -24.8153   51.7197 H   0  0
  1  2  1  0
  2  3  1  0
  2  4  1  0
  4  5  2  0
  4  9  1  0
  5  6  1  0
  6  7  2  0
  7  8  1  0
  8  9  2  0
  9 10  1  0
 10 11  1  0
 10 20  1  0
 10 36  1  0
 11 12  2  0
 11 13  1  0
 13 14  1  0
 14 15  2  0
 14 19  1  0
 15 16  1  0
 16 17  2  0
 17 18  1  0
 18 19  2  0
 20 21  1  0
 21 22  1  0
 22 23  1  0
 22 35  1  0
 23 24  2  0
 23 34  1  0
 24 25  1  0
 25 26  2  0
 26 27  1  0
 26 33  1  0
 27 28  1  0
 27 31  1  0
 27 32  1  0
 28 29  2  0
 28 30  1  0
 31 32  1  0
 33 34  2  0
 35 36  1  0
  1 37  1  0
  1 38  1  0
  1 39  1  0
  2 40  1  0
  3 41  1  0
  3 42  1  0
  3 43  1  0
  5 44  1  0
  6 45  1  0
  7 46  1  0
  8 47  1  0
 13 48  1  0
 15 49  1  0
 17 50  1  0
 18 51  1  0
 20 52  1  0
 20 53  1  0
 21 54  1  0
 21 55  1  0
 24 56  1  0
 25 57  1  0
 30 58  1  0
 31 59  1  0
 31 60  1  0
 32 61  1  0
 32 62  1  0
 33 63  1  0
 34 64  1  0
 35 65  1  0
 35 66  1  0
 36 67  1  0
 36 68  1  0
M  END
> <Name>
Molecule

> <AbsoluteEnergy>
71.2981

> <Clean Energy>
198.799

> <ConfNumber>
37

> <MOL_NUMBER>
8

> <RelativeEnergy>
9.74907

> <POSE_NUMBER>
65

> <LibDockScore>
112.463

> <HotSpots>
-4.53,-24.52,46.19,A,17,5
2.67,-22.92,49.98,A,39,18
-7.73,-27.92,56.98,P,70,30

$$$$
Molecule
  SciTegic05072616053D

 68 72  0  0  0  0            999 V2000
   -3.3025  -24.7932   46.3839 C   0  0  0  1  0  0
   -2.4617  -25.9892   46.8673 C   0  0  0  1  0  0
   -2.3257  -27.0589   45.7671 C   0  0  0  1  0  0
   -1.1213  -25.5476   47.4113 C   0  0  0  1  0  0
   -0.2123  -24.9962   46.4802 C   0  0  0  1  0  0
    1.0631  -24.5731   46.8707 C   0  0  0  1  0  0
    1.4511  -24.6882   48.2078 C   0  0  0  1  0  0
    0.5630  -25.2229   49.1508 C   0  0  0  1  0  0
   -0.7384  -25.6575   48.7884 C   0  0  0  1  0  0
   -1.6717  -26.2256   49.8680 C   0  0  0  1  0  0
   -3.0854  -25.6291   49.7812 C   0  0  0  1  0  0
   -4.0199  -26.3686   49.5587 O   0  0  0  1  0  0
   -3.2902  -24.2676   49.9696 N   0  0  0  1  0  0
   -4.5201  -23.6239   50.0753 C   0  0  0  1  0  0
   -4.5924  -22.2168   49.9044 C   0  0  0  1  0  0
   -5.7794  -21.5515   50.0172 N   0  0  0  1  0  0
   -6.9081  -22.2616   50.2944 C   0  0  0  1  0  0
   -6.8529  -23.6577   50.4721 C   0  0  0  1  0  0
   -5.6686  -24.3217   50.3590 N   0  0  0  1  0  0
   -1.2180  -25.9114   51.3352 C   0  0  0  1  0  0
   -2.2107  -26.4255   52.4065 C   0  0  0  1  0  0
   -2.8018  -27.7401   52.0157 N   0  0  0  1  0  0
   -4.0602  -28.1567   52.4340 C   0  0  0  1  0  0
   -5.0759  -27.2120   52.7053 C   0  0  0  1  0  0
   -6.3647  -27.6302   53.0660 C   0  0  0  1  0  0
   -6.6613  -29.0005   53.1782 C   0  0  0  1  0  0
   -8.0616  -29.4463   53.5319 C   0  0  0  1  0  0
   -8.3780  -29.3496   55.0208 C   0  0  0  1  0  0
   -8.5213  -30.3623   55.6690 O   0  0  0  1  0  0
   -8.5024  -28.1473   55.5809 O   0  0  0  1  0  0
   -9.1854  -29.1151   52.5632 C   0  0  0  1  0  0
   -8.7151  -30.5413   52.7018 C   0  0  0  1  0  0
   -5.6476  -29.9487   52.9483 C   0  0  0  1  0  0
   -4.3574  -29.5305   52.5777 C   0  0  0  1  0  0
   -1.9689  -28.5542   51.0911 C   0  0  0  1  0  0
   -1.6805  -27.7948   49.7708 C   0  0  0  1  0  0
   -4.2917  -25.1530   46.1010 H   0  0
   -2.8197  -24.3573   45.5093 H   0  0
   -3.3885  -24.0469   47.1737 H   0  0
   -2.9938  -26.4540   47.6973 H   0  0
   -1.8499  -26.6067   44.8969 H   0  0
   -3.3219  -27.4025   45.4886 H   0  0
   -1.7284  -27.8972   46.1258 H   0  0
   -0.5108  -24.8985   45.4364 H   0  0
    1.7506  -24.1557   46.1351 H   0  0
    2.4441  -24.3623   48.5174 H   0  0
    0.8802  -25.3072   50.1902 H   0  0
   -2.4167  -23.6536   50.0404 H   0  0
   -3.6844  -21.6574   49.6791 H   0  0
   -7.8637  -21.7442   50.3796 H   0  0
   -7.7638  -24.2106   50.7016 H   0  0
   -1.1045  -24.8332   51.4483 H   0  0
   -0.2435  -26.3675   51.5096 H   0  0
   -1.6878  -26.5368   53.3564 H   0  0
   -3.0117  -25.6973   52.5338 H   0  0
   -4.8550  -26.1471   52.6334 H   0  0
   -7.1406  -26.8897   53.2604 H   0  0
   -9.2489  -27.6631   55.0233 H   0  0
   -8.8053  -28.6527   51.6523 H   0  0
  -10.1275  -28.9492   53.0858 H   0  0
   -9.4061  -31.1369   53.2984 H   0  0
   -8.0826  -30.8398   51.8658 H   0  0
   -5.8633  -31.0115   53.0579 H   0  0
   -3.5794  -30.2729   52.3996 H   0  0
   -2.4901  -29.4839   50.8628 H   0  0
   -1.0246  -28.7960   51.5788 H   0  0
   -0.7150  -28.1247   49.3872 H   0  0
   -2.4248  -28.0921   49.0321 H   0  0
  1  2  1  0
  2  3  1  0
  2  4  1  0
  4  5  2  0
  4  9  1  0
  5  6  1  0
  6  7  2  0
  7  8  1  0
  8  9  2  0
  9 10  1  0
 10 11  1  0
 10 20  1  0
 10 36  1  0
 11 12  2  0
 11 13  1  0
 13 14  1  0
 14 15  2  0
 14 19  1  0
 15 16  1  0
 16 17  2  0
 17 18  1  0
 18 19  2  0
 20 21  1  0
 21 22  1  0
 22 23  1  0
 22 35  1  0
 23 24  2  0
 23 34  1  0
 24 25  1  0
 25 26  2  0
 26 27  1  0
 26 33  1  0
 27 28  1  0
 27 31  1  0
 27 32  1  0
 28 29  2  0
 28 30  1  0
 31 32  1  0
 33 34  2  0
 35 36  1  0
  1 37  1  0
  1 38  1  0
  1 39  1  0
  2 40  1  0
  3 41  1  0
  3 42  1  0
  3 43  1  0
  5 44  1  0
  6 45  1  0
  7 46  1  0
  8 47  1  0
 13 48  1  0
 15 49  1  0
 17 50  1  0
 18 51  1  0
 20 52  1  0
 20 53  1  0
 21 54  1  0
 21 55  1  0
 24 56  1  0
 25 57  1  0
 30 58  1  0
 31 59  1  0
 31 60  1  0
 32 61  1  0
 32 62  1  0
 33 63  1  0
 34 64  1  0
 35 65  1  0
 35 66  1  0
 36 67  1  0
 36 68  1  0
M  END
> <Name>
Molecule

> <AbsoluteEnergy>
65.5453

> <Clean Energy>
198.799

> <ConfNumber>
7

> <MOL_NUMBER>
8

> <RelativeEnergy>
3.99629

> <POSE_NUMBER>
66

> <LibDockScore>
112.4124

> <HotSpots>
1.87,-25.32,48.38,A,30,7
-3.33,-21.92,50.38,A,47,15
-9.33,-29.92,51.19,A,52,32

$$$$
Molecule
  SciTegic05072616053D

 68 72  0  0  0  0            999 V2000
   -3.3240  -24.4172   46.6495 C   0  0  0  1  0  0
   -2.6006  -25.7415   46.9565 C   0  0  0  1  0  0
   -2.6417  -26.6951   45.7472 C   0  0  0  1  0  0
   -1.1933  -25.5073   47.4588 C   0  0  0  1  0  0
   -0.2717  -24.9738   46.5298 C   0  0  0  1  0  0
    1.0616  -24.7357   46.8816 C   0  0  0  1  0  0
    1.4969  -25.0221   48.1778 C   0  0  0  1  0  0
    0.5985  -25.5425   49.1189 C   0  0  0  1  0  0
   -0.7606  -25.7918   48.7956 C   0  0  0  1  0  0
   -1.7013  -26.3534   49.8721 C   0  0  0  1  0  0
   -3.1029  -25.7275   49.7978 C   0  0  0  1  0  0
   -4.0597  -26.4530   49.6311 O   0  0  0  1  0  0
   -3.2715  -24.3548   49.9343 N   0  0  0  1  0  0
   -4.4829  -23.6788   50.0512 C   0  0  0  1  0  0
   -4.5644  -22.3143   49.6691 C   0  0  0  1  0  0
   -5.7323  -21.6167   49.7856 N   0  0  0  1  0  0
   -6.8330  -22.2528   50.2743 C   0  0  0  1  0  0
   -6.7678  -23.6050   50.6629 C   0  0  0  1  0  0
   -5.6026  -24.3013   50.5461 N   0  0  0  1  0  0
   -1.2359  -26.0655   51.3411 C   0  0  0  1  0  0
   -2.2350  -26.5719   52.4102 C   0  0  0  1  0  0
   -2.8539  -27.8696   52.0065 N   0  0  0  1  0  0
   -4.1190  -28.2656   52.4249 C   0  0  0  1  0  0
   -5.1379  -27.3088   52.6350 C   0  0  0  1  0  0
   -6.4325  -27.7090   52.9954 C   0  0  0  1  0  0
   -6.7320  -29.0724   53.1685 C   0  0  0  1  0  0
   -8.1380  -29.5005   53.5215 C   0  0  0  1  0  0
   -8.4827  -29.3169   54.9959 C   0  0  0  1  0  0
   -8.6707  -30.2896   55.6920 O   0  0  0  1  0  0
   -8.5820  -28.0838   55.4903 O   0  0  0  1  0  0
   -9.2438  -29.2304   52.5140 C   0  0  0  1  0  0
   -8.7737  -30.6445   52.7456 C   0  0  0  1  0  0
   -5.7158  -30.0306   52.9999 C   0  0  0  1  0  0
   -4.4196  -29.6309   52.6296 C   0  0  0  1  0  0
   -2.0411  -28.6896   51.0694 C   0  0  0  1  0  0
   -1.7423  -27.9208   49.7568 C   0  0  0  1  0  0
   -4.3605  -24.6364   46.3931 H   0  0
   -2.8394  -23.9440   45.7955 H   0  0
   -3.2854  -23.7553   47.5146 H   0  0
   -3.1396  -26.2331   47.7664 H   0  0
   -2.1620  -26.2056   44.8996 H   0  0
   -3.6831  -26.8980   45.4973 H   0  0
   -2.1258  -27.6262   45.9816 H   0  0
   -0.6063  -24.7430   45.5184 H   0  0
    1.7572  -24.3287   46.1478 H   0  0
    2.5348  -24.8409   48.4570 H   0  0
    0.9530  -25.7616   50.1261 H   0  0
   -2.3829  -23.7589   49.9512 H   0  0
   -3.6791  -21.8146   49.2758 H   0  0
   -7.7738  -21.7100   50.3656 H   0  0
   -7.6554  -24.0977   51.0597 H   0  0
   -1.1002  -24.9912   51.4662 H   0  0
   -0.2702  -26.5432   51.5064 H   0  0
   -1.7110  -26.7048   53.3567 H   0  0
   -3.0206  -25.8292   52.5490 H   0  0
   -4.9149  -26.2486   52.5156 H   0  0
   -7.2106  -26.9599   53.1421 H   0  0
   -9.3013  -27.6076   54.8917 H   0  0
   -8.8473  -28.8216   51.5846 H   0  0
  -10.1959  -29.0366   53.0080 H   0  0
   -9.4748  -31.2057   53.3633 H   0  0
   -8.1249  -30.9901   51.9408 H   0  0
   -5.9341  -31.0869   53.1569 H   0  0
   -3.6396  -30.3811   52.4993 H   0  0
   -2.5818  -29.6059   50.8324 H   0  0
   -1.1001  -28.9561   51.5506 H   0  0
   -0.7852  -28.2657   49.3655 H   0  0
   -2.4953  -28.1944   49.0177 H   0  0
  1  2  1  0
  2  3  1  0
  2  4  1  0
  4  5  2  0
  4  9  1  0
  5  6  1  0
  6  7  2  0
  7  8  1  0
  8  9  2  0
  9 10  1  0
 10 11  1  0
 10 20  1  0
 10 36  1  0
 11 12  2  0
 11 13  1  0
 13 14  1  0
 14 15  2  0
 14 19  1  0
 15 16  1  0
 16 17  2  0
 17 18  1  0
 18 19  2  0
 20 21  1  0
 21 22  1  0
 22 23  1  0
 22 35  1  0
 23 24  2  0
 23 34  1  0
 24 25  1  0
 25 26  2  0
 26 27  1  0
 26 33  1  0
 27 28  1  0
 27 31  1  0
 27 32  1  0
 28 29  2  0
 28 30  1  0
 31 32  1  0
 33 34  2  0
 35 36  1  0
  1 37  1  0
  1 38  1  0
  1 39  1  0
  2 40  1  0
  3 41  1  0
  3 42  1  0
  3 43  1  0
  5 44  1  0
  6 45  1  0
  7 46  1  0
  8 47  1  0
 13 48  1  0
 15 49  1  0
 17 50  1  0
 18 51  1  0
 20 52  1  0
 20 53  1  0
 21 54  1  0
 21 55  1  0
 24 56  1  0
 25 57  1  0
 30 58  1  0
 31 59  1  0
 31 60  1  0
 32 61  1  0
 32 62  1  0
 33 63  1  0
 34 64  1  0
 35 65  1  0
 35 66  1  0
 36 67  1  0
 36 68  1  0
M  END
> <Name>
Molecule

> <AbsoluteEnergy>
65.5453

> <Clean Energy>
198.799

> <ConfNumber>
7

> <MOL_NUMBER>
8

> <RelativeEnergy>
3.99629

> <POSE_NUMBER>
67

> <LibDockScore>
112.2151

> <HotSpots>
1.27,-23.52,47.59,A,27,6
-4.73,-22.32,50.38,A,46,15
-8.53,-31.32,51.19,A,51,32

$$$$
Molecule
  SciTegic05072616053D

 68 72  0  0  0  0            999 V2000
   -1.8260  -26.5218   45.5988 C   0  0  0  1  0  0
   -2.0913  -25.6526   46.8429 C   0  0  0  1  0  0
   -2.9719  -24.4335   46.5112 C   0  0  0  1  0  0
   -0.8210  -25.2486   47.5588 C   0  0  0  1  0  0
    0.1316  -24.5410   46.7907 C   0  0  0  1  0  0
    1.3560  -24.1402   47.3347 C   0  0  0  1  0  0
    1.6485  -24.4368   48.6669 C   0  0  0  1  0  0
    0.7132  -25.1228   49.4550 C   0  0  0  1  0  0
   -0.5453  -25.5361   48.9389 C   0  0  0  1  0  0
   -1.5441  -26.2555   49.8615 C   0  0  0  1  0  0
   -2.9713  -25.7247   49.6602 C   0  0  0  1  0  0
   -3.8255  -26.4827   49.2656 O   0  0  0  1  0  0
   -3.2766  -24.4033   49.9424 N   0  0  0  1  0  0
   -4.5470  -23.8453   50.0661 C   0  0  0  1  0  0
   -5.7407  -24.6150   50.1671 C   0  0  0  1  0  0
   -6.9625  -24.0185   50.2696 N   0  0  0  1  0  0
   -7.0271  -22.6592   50.2918 C   0  0  0  1  0  0
   -5.8548  -21.8827   50.2123 C   0  0  0  1  0  0
   -4.6334  -22.4791   50.1024 N   0  0  0  1  0  0
   -1.4676  -27.7976   49.6412 C   0  0  0  1  0  0
   -2.4286  -28.6380   50.5255 C   0  0  0  1  0  0
   -3.0208  -27.8912   51.6835 N   0  0  0  1  0  0
   -4.3188  -28.1334   52.1211 C   0  0  0  1  0  0
   -4.7552  -29.4484   52.4046 C   0  0  0  1  0  0
   -6.0614  -29.6843   52.8704 C   0  0  0  1  0  0
   -6.9521  -28.6115   53.0703 C   0  0  0  1  0  0
   -8.3511  -28.8630   53.6001 C   0  0  0  1  0  0
   -9.2654  -29.6367   52.6485 C   0  0  0  1  0  0
  -10.1648  -30.3086   53.1013 O   0  0  0  1  0  0
   -9.0815  -29.5598   51.3289 O   0  0  0  1  0  0
   -9.0127  -27.8219   54.4924 C   0  0  0  1  0  0
   -8.5004  -29.1044   55.0959 C   0  0  0  1  0  0
   -6.5227  -27.3024   52.7827 C   0  0  0  1  0  0
   -5.2225  -27.0670   52.3113 C   0  0  0  1  0  0
   -2.2031  -26.8304   52.3414 C   0  0  0  1  0  0
   -1.2012  -26.1400   51.3862 C   0  0  0  1  0  0
   -1.3305  -25.9073   44.8471 H   0  0
   -2.7836  -26.8601   45.2030 H   0  0
   -1.2019  -27.3776   45.8561 H   0  0
   -2.6487  -26.2790   47.5394 H   0  0
   -3.9189  -24.7910   46.1070 H   0  0
   -2.4659  -23.8382   45.7511 H   0  0
   -3.1466  -23.8335   47.4043 H   0  0
   -0.0932  -24.3024   45.7512 H   0  0
    2.0775  -23.5995   46.7221 H   0  0
    2.6045  -24.1350   49.0949 H   0  0
    0.9583  -25.3456   50.4935 H   0  0
   -2.4481  -23.7404   50.0801 H   0  0
   -5.6764  -25.7031   50.1624 H   0  0
   -7.9961  -22.1665   50.3719 H   0  0
   -5.9244  -20.7953   50.2389 H   0  0
   -1.6823  -28.0113   48.5941 H   0  0
   -0.4456  -28.1272   49.8283 H   0  0
   -1.8878  -29.5033   50.9089 H   0  0
   -3.2396  -29.0149   49.9023 H   0  0
   -4.0734  -30.2866   52.2609 H   0  0
   -6.3864  -30.7038   53.0780 H   0  0
   -8.0832  -29.8517   51.1850 H   0  0
  -10.0972  -27.8330   54.3832 H   0  0
   -8.3431  -26.9858   54.6942 H   0  0
   -7.5572  -28.9539   55.6211 H   0  0
   -9.3108  -29.8016   55.3086 H   0  0
   -7.2055  -26.4651   52.9273 H   0  0
   -4.9067  -26.0476   52.0893 H   0  0
   -1.6515  -27.2734   53.1706 H   0  0
   -2.8724  -26.0763   52.7556 H   0  0
   -1.1398  -25.0846   51.6517 H   0  0
   -0.2119  -26.5656   51.5542 H   0  0
  1  2  1  0
  2  3  1  0
  2  4  1  0
  4  5  2  0
  4  9  1  0
  5  6  1  0
  6  7  2  0
  7  8  1  0
  8  9  2  0
  9 10  1  0
 10 11  1  0
 10 20  1  0
 10 36  1  0
 11 12  2  0
 11 13  1  0
 13 14  1  0
 14 15  2  0
 14 19  1  0
 15 16  1  0
 16 17  2  0
 17 18  1  0
 18 19  2  0
 20 21  1  0
 21 22  1  0
 22 23  1  0
 22 35  1  0
 23 24  2  0
 23 34  1  0
 24 25  1  0
 25 26  2  0
 26 27  1  0
 26 33  1  0
 27 28  1  0
 27 31  1  0
 27 32  1  0
 28 29  2  0
 28 30  1  0
 31 32  1  0
 33 34  2  0
 35 36  1  0
  1 37  1  0
  1 38  1  0
  1 39  1  0
  2 40  1  0
  3 41  1  0
  3 42  1  0
  3 43  1  0
  5 44  1  0
  6 45  1  0
  7 46  1  0
  8 47  1  0
 13 48  1  0
 15 49  1  0
 17 50  1  0
 18 51  1  0
 20 52  1  0
 20 53  1  0
 21 54  1  0
 21 55  1  0
 24 56  1  0
 25 57  1  0
 30 58  1  0
 31 59  1  0
 31 60  1  0
 32 61  1  0
 32 62  1  0
 33 63  1  0
 34 64  1  0
 35 65  1  0
 35 66  1  0
 36 67  1  0
 36 68  1  0
M  END
> <Name>
Molecule

> <AbsoluteEnergy>
69.325

> <Clean Energy>
198.799

> <ConfNumber>
24

> <MOL_NUMBER>
8

> <RelativeEnergy>
7.77602

> <POSE_NUMBER>
68

> <LibDockScore>
112.1973

> <HotSpots>
1.27,-23.52,47.59,A,27,6
-6.13,-22.12,49.98,A,41,18
-8.73,-28.12,54.38,A,70,32

$$$$
Molecule
  SciTegic05072616053D

 68 72  0  0  0  0            999 V2000
    1.9409  -25.1422   52.7931 C   0  0  0  1  0  0
    0.4123  -24.9440   52.6699 C   0  0  0  1  0  0
   -0.0071  -23.5890   53.2691 C   0  0  0  1  0  0
   -0.1212  -25.1107   51.2634 C   0  0  0  1  0  0
    0.4945  -24.3082   50.2711 C   0  0  0  1  0  0
    0.1304  -24.3888   48.9235 C   0  0  0  1  0  0
   -0.8704  -25.2752   48.5302 C   0  0  0  1  0  0
   -1.5129  -26.0595   49.4911 C   0  0  0  1  0  0
   -1.1868  -25.9939   50.8722 C   0  0  0  1  0  0
   -2.0701  -26.8925   51.7538 C   0  0  0  1  0  0
   -3.5329  -26.4849   51.4854 C   0  0  0  1  0  0
   -4.2993  -27.2939   51.0092 O   0  0  0  1  0  0
   -3.9598  -25.2000   51.7945 N   0  0  0  1  0  0
   -5.0687  -24.5371   51.2775 C   0  0  0  1  0  0
   -5.0286  -23.1241   51.1481 C   0  0  0  1  0  0
   -6.0915  -22.4252   50.6556 N   0  0  0  1  0  0
   -7.2100  -23.1115   50.2856 C   0  0  0  1  0  0
   -7.2666  -24.5147   50.4093 C   0  0  0  1  0  0
   -6.2030  -25.2106   50.8999 N   0  0  0  1  0  0
   -1.8937  -26.8891   53.3124 C   0  0  0  1  0  0
   -2.9831  -27.7251   54.0430 C   0  0  0  1  0  0
   -3.3924  -28.8908   53.2009 N   0  0  0  1  0  0
   -4.7194  -29.3053   53.0591 C   0  0  0  1  0  0
   -5.0639  -30.3696   52.1916 C   0  0  0  1  0  0
   -6.4062  -30.6786   51.9297 C   0  0  0  1  0  0
   -7.4303  -29.9288   52.5273 C   0  0  0  1  0  0
   -8.8673  -30.1722   52.1269 C   0  0  0  1  0  0
   -9.3299  -29.2432   50.9928 C   0  0  0  1  0  0
   -8.8331  -28.1425   50.8853 O   0  0  0  1  0  0
  -10.2663  -29.6464   50.1319 O   0  0  0  1  0  0
   -9.3929  -31.5990   52.1564 C   0  0  0  1  0  0
   -9.8601  -30.6057   53.1959 C   0  0  0  1  0  0
   -7.1072  -28.9404   53.4715 C   0  0  0  1  0  0
   -5.7635  -28.6418   53.7458 C   0  0  0  1  0  0
   -2.2604  -29.4410   52.4113 C   0  0  0  1  0  0
   -1.8254  -28.3993   51.3472 C   0  0  0  1  0  0
    2.2202  -25.1080   53.8461 H   0  0
    2.4479  -24.3369   52.2616 H   0  0
    2.2275  -26.1034   52.3665 H   0  0
   -0.0436  -25.7484   53.2472 H   0  0
    0.5076  -22.7897   52.7358 H   0  0
    0.2799  -23.5609   54.3203 H   0  0
   -1.0854  -23.4588   53.1775 H   0  0
    1.2751  -23.6073   50.5670 H   0  0
    0.6272  -23.7610   48.1838 H   0  0
   -1.1500  -25.3560   47.4798 H   0  0
   -2.2941  -26.7480   49.1690 H   0  0
   -3.3720  -24.6611   52.5079 H   0  0
   -4.1295  -22.5862   51.4486 H   0  0
   -8.0692  -22.5697   49.8901 H   0  0
   -8.1691  -25.0475   50.1098 H   0  0
   -1.9348  -25.8614   53.6733 H   0  0
   -0.9120  -27.2931   53.5597 H   0  0
   -2.5858  -28.0870   54.9913 H   0  0
   -3.8528  -27.0972   54.2366 H   0  0
   -4.2752  -30.9566   51.7210 H   0  0
   -6.6544  -31.5026   51.2608 H   0  0
  -11.0830  -29.9098   50.7370 H   0  0
   -8.6543  -32.2894   52.5638 H   0  0
  -10.1488  -31.7625   51.3883 H   0  0
  -10.8645  -30.2412   52.9806 H   0  0
   -9.3688  -30.7670   54.1555 H   0  0
   -7.9010  -28.4046   53.9919 H   0  0
   -5.5214  -27.8898   54.4968 H   0  0
   -2.5742  -30.3587   51.9139 H   0  0
   -1.4226  -29.6536   53.0754 H   0  0
   -0.7648  -28.5382   51.1376 H   0  0
   -2.3622  -28.6032   50.4207 H   0  0
  1  2  1  0
  2  3  1  0
  2  4  1  0
  4  5  2  0
  4  9  1  0
  5  6  1  0
  6  7  2  0
  7  8  1  0
  8  9  2  0
  9 10  1  0
 10 11  1  0
 10 20  1  0
 10 36  1  0
 11 12  2  0
 11 13  1  0
 13 14  1  0
 14 15  2  0
 14 19  1  0
 15 16  1  0
 16 17  2  0
 17 18  1  0
 18 19  2  0
 20 21  1  0
 21 22  1  0
 22 23  1  0
 22 35  1  0
 23 24  2  0
 23 34  1  0
 24 25  1  0
 25 26  2  0
 26 27  1  0
 26 33  1  0
 27 28  1  0
 27 31  1  0
 27 32  1  0
 28 29  2  0
 28 30  1  0
 31 32  1  0
 33 34  2  0
 35 36  1  0
  1 37  1  0
  1 38  1  0
  1 39  1  0
  2 40  1  0
  3 41  1  0
  3 42  1  0
  3 43  1  0
  5 44  1  0
  6 45  1  0
  7 46  1  0
  8 47  1  0
 13 48  1  0
 15 49  1  0
 17 50  1  0
 18 51  1  0
 20 52  1  0
 20 53  1  0
 21 54  1  0
 21 55  1  0
 24 56  1  0
 25 57  1  0
 30 58  1  0
 31 59  1  0
 31 60  1  0
 32 61  1  0
 32 62  1  0
 33 63  1  0
 34 64  1  0
 35 65  1  0
 35 66  1  0
 36 67  1  0
 36 68  1  0
M  END
> <Name>
Molecule

> <AbsoluteEnergy>
76.8185

> <Clean Energy>
198.799

> <ConfNumber>
81

> <MOL_NUMBER>
8

> <RelativeEnergy>
15.2695

> <POSE_NUMBER>
69

> <LibDockScore>
110.6218

> <HotSpots>
2.27,-24.92,52.19,A,58,1
-5.13,-23.32,51.38,A,54,15
-9.53,-30.12,52.78,A,62,32

$$$$
Molecule
  SciTegic05072616053D

 68 72  0  0  0  0            999 V2000
   -0.3084  -24.2232   49.1200 C   0  0  0  1  0  0
    0.5065  -25.1125   50.0768 C   0  0  0  1  0  0
    2.0023  -25.1009   49.6864 C   0  0  0  1  0  0
    0.2419  -24.7518   51.5225 C   0  0  0  1  0  0
    0.9403  -23.6194   52.0129 C   0  0  0  1  0  0
    0.8220  -23.1949   53.3410 C   0  0  0  1  0  0
   -0.0091  -23.8906   54.2169 C   0  0  0  1  0  0
   -0.7296  -24.9933   53.7545 C   0  0  0  1  0  0
   -0.6510  -25.4484   52.4111 C   0  0  0  1  0  0
   -1.5798  -26.6371   52.1107 C   0  0  0  1  0  0
   -3.0174  -26.0828   52.0924 C   0  0  0  1  0  0
   -3.8167  -26.4706   52.9166 O   0  0  0  1  0  0
   -3.3857  -25.1440   51.1355 N   0  0  0  1  0  0
   -4.6678  -24.6678   50.8764 C   0  0  0  1  0  0
   -4.8235  -23.4299   50.1976 C   0  0  0  1  0  0
   -6.0610  -22.9309   49.9080 N   0  0  0  1  0  0
   -7.1600  -23.6440   50.2849 C   0  0  0  1  0  0
   -7.0226  -24.8738   50.9608 C   0  0  0  1  0  0
   -5.7864  -25.3688   51.2510 N   0  0  0  1  0  0
   -1.4017  -27.4657   50.7930 C   0  0  0  1  0  0
   -2.5022  -28.5459   50.5859 C   0  0  0  1  0  0
   -2.9905  -29.0546   51.9047 N   0  0  0  1  0  0
   -4.3289  -29.2868   52.2215 C   0  0  0  1  0  0
   -5.3640  -28.7678   51.4076 C   0  0  0  1  0  0
   -6.6983  -28.8163   51.8280 C   0  0  0  1  0  0
   -7.0264  -29.3970   53.0625 C   0  0  0  1  0  0
   -8.4344  -29.2789   53.5859 C   0  0  0  1  0  0
   -8.6393  -27.9444   54.2981 C   0  0  0  1  0  0
   -9.1744  -27.9203   55.3830 O   0  0  0  1  0  0
   -8.2091  -26.8258   53.7083 O   0  0  0  1  0  0
   -9.5861  -29.8460   52.7732 C   0  0  0  1  0  0
   -9.1746  -30.5199   54.0616 C   0  0  0  1  0  0
   -6.0317  -30.0480   53.8116 C   0  0  0  1  0  0
   -4.6922  -30.0016   53.3879 C   0  0  0  1  0  0
   -1.9085  -29.1374   52.9208 C   0  0  0  1  0  0
   -1.4018  -27.7096   53.2546 C   0  0  0  1  0  0
   -0.1950  -24.5979   48.1027 H   0  0
    0.0729  -23.2033   49.1707 H   0  0
   -1.3609  -24.2379   49.4032 H   0  0
    0.1759  -26.1461   49.9747 H   0  0
    2.3747  -24.0776   49.7350 H   0  0
    2.1068  -25.4722   48.6669 H   0  0
    2.5704  -25.7328   50.3691 H   0  0
    1.5883  -23.0633   51.3355 H   0  0
    1.3774  -22.3239   53.6889 H   0  0
   -0.0961  -23.5757   55.2568 H   0  0
   -1.3774  -25.5256   54.4510 H   0  0
   -2.5977  -24.7438   50.5324 H   0  0
   -3.9379  -22.8673   49.9021 H   0  0
   -8.1552  -23.2595   50.0615 H   0  0
   -7.9115  -25.4327   51.2533 H   0  0
   -1.4130  -26.7838   49.9427 H   0  0
   -0.4276  -27.9545   50.8109 H   0  0
   -2.0917  -29.3752   50.0099 H   0  0
   -3.3368  -28.1104   50.0365 H   0  0
   -5.1193  -28.3251   50.4421 H   0  0
   -7.4836  -28.4024   51.1955 H   0  0
   -8.6839  -26.8091   52.7719 H   0  0
   -9.2294  -30.3942   51.9013 H   0  0
  -10.4938  -29.2561   52.9002 H   0  0
   -9.8633  -30.2882   54.8741 H   0  0
   -8.5973  -31.4255   53.8751 H   0  0
   -6.2984  -30.5882   54.7200 H   0  0
   -3.9259  -30.5211   53.9632 H   0  0
   -2.2949  -29.6060   53.8259 H   0  0
   -1.0840  -29.7320   52.5275 H   0  0
   -0.3447  -27.7695   53.5134 H   0  0
   -1.9215  -27.3580   54.1459 H   0  0
  1  2  1  0
  2  3  1  0
  2  4  1  0
  4  5  2  0
  4  9  1  0
  5  6  1  0
  6  7  2  0
  7  8  1  0
  8  9  2  0
  9 10  1  0
 10 11  1  0
 10 20  1  0
 10 36  1  0
 11 12  2  0
 11 13  1  0
 13 14  1  0
 14 15  2  0
 14 19  1  0
 15 16  1  0
 16 17  2  0
 17 18  1  0
 18 19  2  0
 20 21  1  0
 21 22  1  0
 22 23  1  0
 22 35  1  0
 23 24  2  0
 23 34  1  0
 24 25  1  0
 25 26  2  0
 26 27  1  0
 26 33  1  0
 27 28  1  0
 27 31  1  0
 27 32  1  0
 28 29  2  0
 28 30  1  0
 31 32  1  0
 33 34  2  0
 35 36  1  0
  1 37  1  0
  1 38  1  0
  1 39  1  0
  2 40  1  0
  3 41  1  0
  3 42  1  0
  3 43  1  0
  5 44  1  0
  6 45  1  0
  7 46  1  0
  8 47  1  0
 13 48  1  0
 15 49  1  0
 17 50  1  0
 18 51  1  0
 20 52  1  0
 20 53  1  0
 21 54  1  0
 21 55  1  0
 24 56  1  0
 25 57  1  0
 30 58  1  0
 31 59  1  0
 31 60  1  0
 32 61  1  0
 32 62  1  0
 33 63  1  0
 34 64  1  0
 35 65  1  0
 35 66  1  0
 36 67  1  0
 36 68  1  0
M  END
> <Name>
Molecule

> <AbsoluteEnergy>
77.7912

> <Clean Energy>
198.799

> <ConfNumber>
87

> <MOL_NUMBER>
8

> <RelativeEnergy>
16.2422

> <POSE_NUMBER>
70

> <LibDockScore>
109.7817

> <HotSpots>
2.27,-24.92,52.19,A,58,3
0.47,-23.32,53.78,A,67,5
-7.33,-24.12,50.38,A,44,17

$$$$
Molecule
  SciTegic05072616053D

 68 72  0  0  0  0            999 V2000
   -2.4282  -26.8640   48.8826 C   0  0  0  1  0  0
   -2.8051  -27.8487   50.0138 C   0  0  0  1  0  0
   -2.0386  -29.1745   49.8540 C   0  0  0  1  0  0
   -2.6378  -27.2825   51.4074 C   0  0  0  1  0  0
   -1.3570  -26.7573   51.7100 C   0  0  0  1  0  0
   -1.0727  -26.1657   52.9446 C   0  0  0  1  0  0
   -2.0663  -26.0887   53.9186 C   0  0  0  1  0  0
   -3.3305  -26.6222   53.6572 C   0  0  0  1  0  0
   -3.6545  -27.2487   52.4241 C   0  0  0  1  0  0
   -5.0795  -27.8252   52.3854 C   0  0  0  1  0  0
   -5.1172  -28.9952   53.3893 C   0  0  0  1  0  0
   -5.7617  -28.8846   54.4096 O   0  0  0  1  0  0
   -4.4182  -30.1634   53.1149 N   0  0  0  1  0  0
   -4.3212  -31.2925   53.9226 C   0  0  0  1  0  0
   -3.8693  -32.5112   53.3521 C   0  0  0  1  0  0
   -3.7646  -33.6489   54.0974 N   0  0  0  1  0  0
   -4.1066  -33.5998   55.4164 C   0  0  0  1  0  0
   -4.5587  -32.3978   55.9979 C   0  0  0  1  0  0
   -4.6608  -31.2624   55.2517 N   0  0  0  1  0  0
   -5.6709  -28.3810   51.0431 C   0  0  0  1  0  0
   -7.0495  -29.0754   51.2349 C   0  0  0  1  0  0
   -7.8168  -28.4086   52.3314 N   0  0  0  1  0  0
   -8.5545  -29.1117   53.2876 C   0  0  0  1  0  0
   -8.7263  -28.6028   54.5974 C   0  0  0  1  0  0
   -9.3281  -29.3793   55.5978 C   0  0  0  1  0  0
   -9.7675  -30.6801   55.3098 C   0  0  0  1  0  0
  -10.2795  -31.5612   56.4260 C   0  0  0  1  0  0
   -9.1747  -32.4335   57.0440 C   0  0  0  1  0  0
   -8.1482  -32.6195   56.4263 O   0  0  0  1  0  0
   -9.3421  -32.9769   58.2512 O   0  0  0  1  0  0
  -11.3665  -31.0130   57.3375 C   0  0  0  1  0  0
  -11.7010  -32.0980   56.3395 C   0  0  0  1  0  0
   -9.7014  -31.1597   53.9914 C   0  0  0  1  0  0
   -9.1134  -30.3762   52.9863 C   0  0  0  1  0  0
   -7.5672  -26.9449   52.3848 C   0  0  0  1  0  0
   -6.0963  -26.6924   52.8079 C   0  0  0  1  0  0
   -2.6767  -27.3143   47.9216 H   0  0
   -1.3561  -26.6713   48.9214 H   0  0
   -2.9756  -25.9293   49.0045 H   0  0
   -3.8734  -28.0365   49.9066 H   0  0
   -0.9680  -28.9728   49.8890 H   0  0
   -2.2887  -29.6158   48.8892 H   0  0
   -2.3109  -29.8613   50.6554 H   0  0
   -0.5701  -26.8162   50.9581 H   0  0
   -0.0783  -25.7665   53.1443 H   0  0
   -1.8584  -25.6153   54.8781 H   0  0
   -4.0976  -26.5552   54.4287 H   0  0
   -3.8976  -30.1992   52.1808 H   0  0
   -3.6003  -32.5385   52.2962 H   0  0
   -4.0296  -34.4991   56.0275 H   0  0
   -4.8289  -32.3766   57.0537 H   0  0
   -4.9701  -29.0976   50.6148 H   0  0
   -5.7838  -27.5583   50.3371 H   0  0
   -7.6181  -29.0129   50.3071 H   0  0
   -6.8951  -30.1240   51.4891 H   0  0
   -8.3862  -27.5940   54.8313 H   0  0
   -9.4547  -28.9717   56.6007 H   0  0
  -10.2322  -33.5278   58.1696 H   0  0
  -11.7158  -30.0366   57.0017 H   0  0
  -11.2782  -31.4103   58.3487 H   0  0
  -11.7907  -33.0722   56.8200 H   0  0
  -12.2268  -31.6984   55.4724 H   0  0
  -10.1073  -32.1417   53.7485 H   0  0
   -9.0870  -30.7462   51.9614 H   0  0
   -8.2379  -26.4865   53.1115 H   0  0
   -7.7421  -26.5096   51.4009 H   0  0
   -5.7675  -25.7471   52.3761 H   0  0
   -6.0607  -26.5767   53.8912 H   0  0
  1  2  1  0
  2  3  1  0
  2  4  1  0
  4  5  2  0
  4  9  1  0
  5  6  1  0
  6  7  2  0
  7  8  1  0
  8  9  2  0
  9 10  1  0
 10 11  1  0
 10 20  1  0
 10 36  1  0
 11 12  2  0
 11 13  1  0
 13 14  1  0
 14 15  2  0
 14 19  1  0
 15 16  1  0
 16 17  2  0
 17 18  1  0
 18 19  2  0
 20 21  1  0
 21 22  1  0
 22 23  1  0
 22 35  1  0
 23 24  2  0
 23 34  1  0
 24 25  1  0
 25 26  2  0
 26 27  1  0
 26 33  1  0
 27 28  1  0
 27 31  1  0
 27 32  1  0
 28 29  2  0
 28 30  1  0
 31 32  1  0
 33 34  2  0
 35 36  1  0
  1 37  1  0
  1 38  1  0
  1 39  1  0
  2 40  1  0
  3 41  1  0
  3 42  1  0
  3 43  1  0
  5 44  1  0
  6 45  1  0
  7 46  1  0
  8 47  1  0
 13 48  1  0
 15 49  1  0
 17 50  1  0
 18 51  1  0
 20 52  1  0
 20 53  1  0
 21 54  1  0
 21 55  1  0
 24 56  1  0
 25 57  1  0
 30 58  1  0
 31 59  1  0
 31 60  1  0
 32 61  1  0
 32 62  1  0
 33 63  1  0
 34 64  1  0
 35 65  1  0
 35 66  1  0
 36 67  1  0
 36 68  1  0
M  END
> <Name>
Molecule

> <AbsoluteEnergy>
76.8185

> <Clean Energy>
198.799

> <ConfNumber>
81

> <MOL_NUMBER>
8

> <RelativeEnergy>
15.2695

> <POSE_NUMBER>
71

> <LibDockScore>
109.1645

> <HotSpots>
-4.33,-32.92,55.19,A,75,17
-11.53,-32.52,54.78,A,71,32
-6.33,-26.32,51.98,A,57,36

$$$$
Molecule
  SciTegic05072616053D

 68 72  0  0  0  0            999 V2000
   -1.6320  -24.1985   47.0012 C   0  0  0  1  0  0
   -2.8985  -24.9323   47.4779 C   0  0  0  1  0  0
   -3.7629  -25.3955   46.2887 C   0  0  0  1  0  0
   -3.6911  -24.1026   48.4631 C   0  0  0  1  0  0
   -4.3259  -22.9448   47.9584 C   0  0  0  1  0  0
   -5.0988  -22.1196   48.7849 C   0  0  0  1  0  0
   -5.2441  -22.4349   50.1368 C   0  0  0  1  0  0
   -4.6150  -23.5690   50.6604 C   0  0  0  1  0  0
   -3.8285  -24.4302   49.8496 C   0  0  0  1  0  0
   -3.1799  -25.6704   50.4742 C   0  0  0  1  0  0
   -1.6492  -25.6491   50.4587 C   0  0  0  1  0  0
   -1.0522  -26.7032   50.4247 O   0  0  0  1  0  0
   -0.9447  -24.4547   50.5213 N   0  0  0  1  0  0
    0.4335  -24.4036   50.5900 C   0  0  0  1  0  0
    1.2021  -23.5912   49.7193 C   0  0  0  1  0  0
    2.5638  -23.5542   49.8270 N   0  0  0  1  0  0
    3.1706  -24.3069   50.7933 C   0  0  0  1  0  0
    2.4077  -25.1053   51.6698 C   0  0  0  1  0  0
    1.0539  -25.1471   51.5582 N   0  0  0  1  0  0
   -3.7808  -26.9512   49.7858 C   0  0  0  1  0  0
   -3.4425  -28.3085   50.4560 C   0  0  0  1  0  0
   -3.6816  -28.2166   51.9148 N   0  0  0  1  0  0
   -4.6351  -28.9435   52.6013 C   0  0  0  1  0  0
   -4.5041  -29.1473   53.9919 C   0  0  0  1  0  0
   -5.6006  -29.5930   54.7397 C   0  0  0  1  0  0
   -6.8224  -29.8452   54.0934 C   0  0  0  1  0  0
   -8.0745  -29.9964   54.9056 C   0  0  0  1  0  0
   -8.4588  -28.6120   55.4043 C   0  0  0  1  0  0
   -9.2837  -27.9670   54.7973 O   0  0  0  1  0  0
   -7.8285  -28.1198   56.4685 O   0  0  0  1  0  0
   -9.1425  -31.0159   54.5509 C   0  0  0  1  0  0
   -8.2958  -31.2128   55.7869 C   0  0  0  1  0  0
   -6.8801  -29.8845   52.6895 C   0  0  0  1  0  0
   -5.7823  -29.4351   51.9402 C   0  0  0  1  0  0
   -2.9293  -27.1347   52.5936 C   0  0  0  1  0  0
   -3.4557  -25.8096   52.0122 C   0  0  0  1  0  0
   -1.9324  -23.3335   46.4099 H   0  0
   -1.0538  -24.8748   46.3716 H   0  0
   -1.0342  -23.8789   47.8548 H   0  0
   -2.5747  -25.8276   48.0087 H   0  0
   -3.1681  -26.0625   45.6646 H   0  0
   -4.0467  -24.5212   45.7029 H   0  0
   -4.6539  -25.9123   46.6453 H   0  0
   -4.2116  -22.6892   46.9050 H   0  0
   -5.5849  -21.2347   48.3741 H   0  0
   -5.8472  -21.7979   50.7838 H   0  0
   -4.7314  -23.7983   51.7196 H   0  0
   -1.4923  -23.5355   50.5161 H   0  0
    0.7032  -22.9914   48.9581 H   0  0
    4.2564  -24.2897   50.8872 H   0  0
    2.9064  -25.6922   52.4411 H   0  0
   -3.4375  -26.9828   48.7518 H   0  0
   -4.8651  -26.8469   49.7472 H   0  0
   -2.3957  -28.5529   50.2753 H   0  0
   -4.0747  -29.0895   50.0337 H   0  0
   -3.5498  -28.9578   54.4833 H   0  0
   -5.5071  -29.7432   55.8152 H   0  0
   -6.8085  -28.1408   56.2202 H   0  0
   -8.8217  -31.6655   53.7366 H   0  0
  -10.1398  -30.6539   54.8005 H   0  0
   -8.8433  -30.9563   56.6939 H   0  0
   -7.5243  -31.9666   55.6296 H   0  0
   -7.7709  -30.2612   52.1868 H   0  0
   -5.8147  -29.4653   50.8511 H   0  0
   -3.1177  -27.1681   53.6667 H   0  0
   -1.8643  -27.2331   52.3832 H   0  0
   -2.9803  -24.9798   52.5351 H   0  0
   -4.5295  -25.7474   52.1888 H   0  0
  1  2  1  0
  2  3  1  0
  2  4  1  0
  4  5  2  0
  4  9  1  0
  5  6  1  0
  6  7  2  0
  7  8  1  0
  8  9  2  0
  9 10  1  0
 10 11  1  0
 10 20  1  0
 10 36  1  0
 11 12  2  0
 11 13  1  0
 13 14  1  0
 14 15  2  0
 14 19  1  0
 15 16  1  0
 16 17  2  0
 17 18  1  0
 18 19  2  0
 20 21  1  0
 21 22  1  0
 22 23  1  0
 22 35  1  0
 23 24  2  0
 23 34  1  0
 24 25  1  0
 25 26  2  0
 26 27  1  0
 26 33  1  0
 27 28  1  0
 27 31  1  0
 27 32  1  0
 28 29  2  0
 28 30  1  0
 31 32  1  0
 33 34  2  0
 35 36  1  0
  1 37  1  0
  1 38  1  0
  1 39  1  0
  2 40  1  0
  3 41  1  0
  3 42  1  0
  3 43  1  0
  5 44  1  0
  6 45  1  0
  7 46  1  0
  8 47  1  0
 13 48  1  0
 15 49  1  0
 17 50  1  0
 18 51  1  0
 20 52  1  0
 20 53  1  0
 21 54  1  0
 21 55  1  0
 24 56  1  0
 25 57  1  0
 30 58  1  0
 31 59  1  0
 31 60  1  0
 32 61  1  0
 32 62  1  0
 33 63  1  0
 34 64  1  0
 35 65  1  0
 35 66  1  0
 36 67  1  0
 36 68  1  0
M  END
> <Name>
Molecule

> <AbsoluteEnergy>
77.2065

> <Clean Energy>
198.799

> <ConfNumber>
85

> <MOL_NUMBER>
8

> <RelativeEnergy>
15.6575

> <POSE_NUMBER>
72

> <LibDockScore>
108.8139

> <HotSpots>
-2.93,-26.32,45.98,A,15,3
-5.33,-24.12,49.78,A,36,8
2.27,-24.92,52.19,A,58,17

$$$$
Molecule
  SciTegic05072616053D

 68 72  0  0  0  0            999 V2000
   -1.6740  -24.3885   46.9121 C   0  0  0  1  0  0
   -2.9586  -25.0791   47.4048 C   0  0  0  1  0  0
   -3.8373  -25.5422   46.2261 C   0  0  0  1  0  0
   -3.7271  -24.2097   48.3748 C   0  0  0  1  0  0
   -4.3634  -23.0656   47.8417 C   0  0  0  1  0  0
   -5.1152  -22.2064   48.6529 C   0  0  0  1  0  0
   -5.2372  -22.4732   50.0175 C   0  0  0  1  0  0
   -4.6061  -23.5931   50.5688 C   0  0  0  1  0  0
   -3.8407  -24.4878   49.7743 C   0  0  0  1  0  0
   -3.1889  -25.7101   50.4298 C   0  0  0  1  0  0
   -1.6582  -25.6789   50.4254 C   0  0  0  1  0  0
   -1.0541  -26.7293   50.4012 O   0  0  0  1  0  0
   -0.9619  -24.4796   50.4871 N   0  0  0  1  0  0
    0.4165  -24.4185   50.5400 C   0  0  0  1  0  0
    1.1709  -23.6227   49.6420 C   0  0  0  1  0  0
    2.5334  -23.5749   49.7344 N   0  0  0  1  0  0
    3.1550  -24.3005   50.7120 C   0  0  0  1  0  0
    2.4063  -25.0822   51.6154 C   0  0  0  1  0  0
    1.0517  -25.1349   51.5191 N   0  0  0  1  0  0
   -3.7760  -27.0091   49.7641 C   0  0  0  1  0  0
   -3.4340  -28.3497   50.4654 C   0  0  0  1  0  0
   -3.6849  -28.2287   51.9201 N   0  0  0  1  0  0
   -4.6390  -28.9472   52.6145 C   0  0  0  1  0  0
   -4.5248  -29.1088   54.0123 C   0  0  0  1  0  0
   -5.6261  -29.5464   54.7578 C   0  0  0  1  0  0
   -6.8356  -29.8328   54.1027 C   0  0  0  1  0  0
   -8.0969  -29.9761   54.9018 C   0  0  0  1  0  0
   -8.4683  -28.5919   55.4109 C   0  0  0  1  0  0
   -9.2948  -27.9389   54.8147 O   0  0  0  1  0  0
   -7.8254  -28.1089   56.4718 O   0  0  0  1  0  0
   -9.1744  -30.9784   54.5272 C   0  0  0  1  0  0
   -8.3417  -31.1983   55.7689 C   0  0  0  1  0  0
   -6.8732  -29.9137   52.6998 C   0  0  0  1  0  0
   -5.7707  -29.4724   51.9526 C   0  0  0  1  0  0
   -2.9449  -27.1277   52.5815 C   0  0  0  1  0  0
   -3.4756  -25.8186   51.9682 C   0  0  0  1  0  0
   -1.9525  -23.5275   46.3045 H   0  0
   -1.1151  -25.0920   46.2949 H   0  0
   -1.0663  -24.0684   47.7584 H   0  0
   -2.6575  -25.9721   47.9525 H   0  0
   -3.2616  -26.2367   45.6143 H   0  0
   -4.0990  -24.6722   45.6238 H   0  0
   -4.7410  -26.0281   46.5940 H   0  0
   -4.2670  -22.8477   46.7781 H   0  0
   -5.6031  -21.3329   48.2203 H   0  0
   -5.8237  -21.8095   50.6529 H   0  0
   -4.7043  -23.7845   51.6374 H   0  0
   -1.5164  -23.5645   50.4939 H   0  0
    0.6604  -23.0445   48.8719 H   0  0
    4.2416  -24.2744   50.7940 H   0  0
    2.9167  -25.6473   52.3953 H   0  0
   -3.4245  -27.0602   48.7336 H   0  0
   -4.8606  -26.9129   49.7150 H   0  0
   -2.3843  -28.5908   50.2978 H   0  0
   -4.0578  -29.1437   50.0549 H   0  0
   -3.5798  -28.8930   54.5108 H   0  0
   -5.5458  -29.6640   55.8385 H   0  0
   -6.8078  -28.1348   56.2141 H   0  0
   -8.8543  -31.6240   53.7094 H   0  0
  -10.1694  -30.6062   54.7713 H   0  0
   -8.8943  -30.9438   56.6733 H   0  0
   -7.5784  -31.9602   55.6111 H   0  0
   -7.7522  -30.3162   52.1963 H   0  0
   -5.7876  -29.5347   50.8645 H   0  0
   -3.1413  -27.1397   53.6536 H   0  0
   -1.8777  -27.2234   52.3812 H   0  0
   -3.0096  -24.9747   52.4770 H   0  0
   -4.5511  -25.7600   52.1353 H   0  0
  1  2  1  0
  2  3  1  0
  2  4  1  0
  4  5  2  0
  4  9  1  0
  5  6  1  0
  6  7  2  0
  7  8  1  0
  8  9  2  0
  9 10  1  0
 10 11  1  0
 10 20  1  0
 10 36  1  0
 11 12  2  0
 11 13  1  0
 13 14  1  0
 14 15  2  0
 14 19  1  0
 15 16  1  0
 16 17  2  0
 17 18  1  0
 18 19  2  0
 20 21  1  0
 21 22  1  0
 22 23  1  0
 22 35  1  0
 23 24  2  0
 23 34  1  0
 24 25  1  0
 25 26  2  0
 26 27  1  0
 26 33  1  0
 27 28  1  0
 27 31  1  0
 27 32  1  0
 28 29  2  0
 28 30  1  0
 31 32  1  0
 33 34  2  0
 35 36  1  0
  1 37  1  0
  1 38  1  0
  1 39  1  0
  2 40  1  0
  3 41  1  0
  3 42  1  0
  3 43  1  0
  5 44  1  0
  6 45  1  0
  7 46  1  0
  8 47  1  0
 13 48  1  0
 15 49  1  0
 17 50  1  0
 18 51  1  0
 20 52  1  0
 20 53  1  0
 21 54  1  0
 21 55  1  0
 24 56  1  0
 25 57  1  0
 30 58  1  0
 31 59  1  0
 31 60  1  0
 32 61  1  0
 32 62  1  0
 33 63  1  0
 34 64  1  0
 35 65  1  0
 35 66  1  0
 36 67  1  0
 36 68  1  0
M  END
> <Name>
Molecule

> <AbsoluteEnergy>
77.2065

> <Clean Energy>
198.799

> <ConfNumber>
85

> <MOL_NUMBER>
8

> <RelativeEnergy>
15.6575

> <POSE_NUMBER>
73

> <LibDockScore>
108.6485

> <HotSpots>
-4.73,-22.32,50.38,A,46,7
1.67,-24.32,50.98,A,50,15
-7.73,-27.92,56.98,P,70,30

$$$$
Molecule
  SciTegic05072616053D

 68 72  0  0  0  0            999 V2000
   -5.3258  -32.2330   51.8741 C   0  0  0  1  0  0
   -5.6092  -31.0551   52.8265 C   0  0  0  1  0  0
   -5.6254  -31.5235   54.2948 C   0  0  0  1  0  0
   -6.8789  -30.3156   52.4570 C   0  0  0  1  0  0
   -8.0388  -31.1027   52.2906 C   0  0  0  1  0  0
   -9.2738  -30.5233   51.9810 C   0  0  0  1  0  0
   -9.3776  -29.1363   51.8624 C   0  0  0  1  0  0
   -8.2416  -28.3359   52.0175 C   0  0  0  1  0  0
   -6.9613  -28.8956   52.2660 C   0  0  0  1  0  0
   -5.7212  -27.9878   52.2844 C   0  0  0  1  0  0
   -4.8439  -28.2684   53.5245 C   0  0  0  1  0  0
   -5.3504  -28.7304   54.5245 O   0  0  0  1  0  0
   -3.4819  -28.0087   53.4945 N   0  0  0  1  0  0
   -2.5288  -28.2065   54.4794 C   0  0  0  1  0  0
   -1.2362  -27.6486   54.2855 C   0  0  0  1  0  0
   -0.2500  -27.8112   55.2105 N   0  0  0  1  0  0
   -0.5260  -28.5259   56.3381 C   0  0  0  1  0  0
   -1.8050  -29.0843   56.5439 C   0  0  0  1  0  0
   -2.7934  -28.9211   55.6181 N   0  0  0  1  0  0
   -6.0857  -26.4661   52.3020 C   0  0  0  1  0  0
   -4.9249  -25.4876   52.0681 C   0  0  0  1  0  0
   -4.1343  -25.8400   50.8566 N   0  0  0  1  0  0
   -3.5840  -24.8840   50.0380 C   0  0  0  1  0  0
   -3.9342  -23.5236   50.1487 C   0  0  0  1  0  0
   -3.5964  -22.6428   49.1122 C   0  0  0  1  0  0
   -2.9221  -23.1315   47.9775 C   0  0  0  1  0  0
   -2.8848  -22.2945   46.7283 C   0  0  0  1  0  0
   -4.2738  -22.2935   46.0761 C   0  0  0  1  0  0
   -4.5669  -21.4236   45.2897 O   0  0  0  1  0  0
   -5.1390  -23.2692   46.3975 O   0  0  0  1  0  0
   -1.6342  -22.2566   45.8645 C   0  0  0  1  0  0
   -2.0256  -21.0431   46.6775 C   0  0  0  1  0  0
   -2.3621  -24.4210   47.9914 C   0  0  0  1  0  0
   -2.6903  -25.2976   49.0309 C   0  0  0  1  0  0
   -3.9186  -27.2686   50.4682 C   0  0  0  1  0  0
   -5.0394  -28.2211   50.8965 C   0  0  0  1  0  0
   -6.1010  -32.9876   52.0072 H   0  0
   -4.3588  -32.6667   52.1288 H   0  0
   -5.3173  -31.8874   50.8404 H   0  0
   -4.7923  -30.3421   52.7150 H   0  0
   -4.6566  -31.9614   54.5353 H   0  0
   -6.3989  -32.2823   54.4137 H   0  0
   -5.8267  -30.6809   54.9563 H   0  0
   -7.9707  -32.1845   52.4057 H   0  0
  -10.1516  -31.1523   51.8330 H   0  0
  -10.3432  -28.6777   51.6491 H   0  0
   -8.3421  -27.2529   51.9456 H   0  0
   -3.1146  -27.5960   52.5782 H   0  0
   -1.0302  -27.0796   53.3789 H   0  0
    0.2508  -28.6676   57.0895 H   0  0
   -2.0056  -29.6522   57.4524 H   0  0
   -6.5455  -26.2307   53.2618 H   0  0
   -6.8471  -26.2841   51.5435 H   0  0
   -4.2673  -25.4975   52.9373 H   0  0
   -5.3246  -24.4802   51.9517 H   0  0
   -4.4619  -23.1604   51.0306 H   0  0
   -3.8542  -21.5862   49.1844 H   0  0
   -5.2332  -23.2207   47.4421 H   0  0
   -1.8795  -22.1297   44.8101 H   0  0
   -0.8119  -22.8022   46.3274 H   0  0
   -1.4099  -20.9431   47.5714 H   0  0
   -2.4787  -20.2716   46.0549 H   0  0
   -1.6799  -24.7341   47.2011 H   0  0
   -2.2561  -26.2969   49.0615 H   0  0
   -3.8080  -27.3232   49.3852 H   0  0
   -2.9813  -27.6127   50.9055 H   0  0
   -4.6439  -29.2367   50.8788 H   0  0
   -5.8129  -28.1979   50.1289 H   0  0
  1  2  1  0
  2  3  1  0
  2  4  1  0
  4  5  2  0
  4  9  1  0
  5  6  1  0
  6  7  2  0
  7  8  1  0
  8  9  2  0
  9 10  1  0
 10 11  1  0
 10 20  1  0
 10 36  1  0
 11 12  2  0
 11 13  1  0
 13 14  1  0
 14 15  2  0
 14 19  1  0
 15 16  1  0
 16 17  2  0
 17 18  1  0
 18 19  2  0
 20 21  1  0
 21 22  1  0
 22 23  1  0
 22 35  1  0
 23 24  2  0
 23 34  1  0
 24 25  1  0
 25 26  2  0
 26 27  1  0
 26 33  1  0
 27 28  1  0
 27 31  1  0
 27 32  1  0
 28 29  2  0
 28 30  1  0
 31 32  1  0
 33 34  2  0
 35 36  1  0
  1 37  1  0
  1 38  1  0
  1 39  1  0
  2 40  1  0
  3 41  1  0
  3 42  1  0
  3 43  1  0
  5 44  1  0
  6 45  1  0
  7 46  1  0
  8 47  1  0
 13 48  1  0
 15 49  1  0
 17 50  1  0
 18 51  1  0
 20 52  1  0
 20 53  1  0
 21 54  1  0
 21 55  1  0
 24 56  1  0
 25 57  1  0
 30 58  1  0
 31 59  1  0
 31 60  1  0
 32 61  1  0
 32 62  1  0
 33 63  1  0
 34 64  1  0
 35 65  1  0
 35 66  1  0
 36 67  1  0
 36 68  1  0
M  END
> <Name>
Molecule

> <AbsoluteEnergy>
80.0416

> <Clean Energy>
198.799

> <ConfNumber>
102

> <MOL_NUMBER>
8

> <RelativeEnergy>
18.4926

> <POSE_NUMBER>
74

> <LibDockScore>
108.5392

> <HotSpots>
-7.93,-28.32,52.38,A,59,8
-1.53,-28.72,56.38,A,78,18
-2.53,-21.12,45.98,A,16,32

$$$$
Molecule
  SciTegic05072616053D

 68 72  0  0  0  0            999 V2000
    0.7021  -25.1973   48.9188 C   0  0  0  1  0  0
    0.5934  -24.1183   50.0118 C   0  0  0  1  0  0
    1.9628  -23.4134   50.1639 C   0  0  0  1  0  0
   -0.0033  -24.6840   51.2918 C   0  0  0  1  0  0
    0.9193  -24.9681   52.3315 C   0  0  0  1  0  0
    0.5148  -25.5041   53.5565 C   0  0  0  1  0  0
   -0.8321  -25.7849   53.7732 C   0  0  0  1  0  0
   -1.7657  -25.5236   52.7659 C   0  0  0  1  0  0
   -1.4093  -24.9605   51.5099 C   0  0  0  1  0  0
   -2.5730  -24.7371   50.5098 C   0  0  0  1  0  0
   -2.2976  -23.6507   49.4546 C   0  0  0  1  0  0
   -2.5435  -22.5028   49.7618 O   0  0  0  1  0  0
   -1.7862  -23.9185   48.1859 N   0  0  0  1  0  0
   -1.6516  -22.9719   47.1787 C   0  0  0  1  0  0
   -0.3991  -22.7555   46.5428 C   0  0  0  1  0  0
   -0.2661  -21.8333   45.5413 N   0  0  0  1  0  0
   -1.3632  -21.1162   45.1630 C   0  0  0  1  0  0
   -2.6089  -21.3198   45.7889 C   0  0  0  1  0  0
   -2.7414  -22.2401   46.7845 N   0  0  0  1  0  0
   -3.8847  -24.1892   51.2290 C   0  0  0  1  0  0
   -5.1632  -25.0265   51.0347 C   0  0  0  1  0  0
   -4.9483  -26.4600   51.3722 N   0  0  0  1  0  0
   -5.8397  -27.1665   52.1830 C   0  0  0  1  0  0
   -5.4521  -28.3632   52.8323 C   0  0  0  1  0  0
   -6.3447  -29.0456   53.6779 C   0  0  0  1  0  0
   -7.6465  -28.5545   53.8848 C   0  0  0  1  0  0
   -8.6005  -29.2734   54.8154 C   0  0  0  1  0  0
   -8.7312  -28.6039   56.1829 C   0  0  0  1  0  0
   -9.8235  -28.5245   56.6996 O   0  0  0  1  0  0
   -7.6462  -28.1197   56.7907 O   0  0  0  1  0  0
   -9.8231  -29.9433   54.2051 C   0  0  0  1  0  0
   -8.7077  -30.7911   54.7653 C   0  0  0  1  0  0
   -8.0536  -27.3832   53.2248 C   0  0  0  1  0  0
   -7.1616  -26.6985   52.3826 C   0  0  0  1  0  0
   -3.7255  -27.0900   50.7892 C   0  0  0  1  0  0
   -2.9467  -26.1173   49.8670 C   0  0  0  1  0  0
    1.4577  -25.9308   49.2001 H   0  0
    0.9783  -24.7345   47.9714 H   0  0
   -0.2604  -25.6967   48.8080 H   0  0
   -0.1150  -23.3420   49.7228 H   0  0
    2.2425  -22.9457   49.2199 H   0  0
    2.7218  -24.1420   50.4486 H   0  0
    1.8908  -22.6483   50.9369 H   0  0
    1.9772  -24.7616   52.1693 H   0  0
    1.2487  -25.7013   54.3379 H   0  0
   -1.1570  -26.2067   54.7243 H   0  0
   -2.8130  -25.7621   52.9516 H   0  0
   -1.4766  -24.9205   47.9738 H   0  0
    0.4694  -23.3337   46.8582 H   0  0
   -1.2750  -20.3768   44.3670 H   0  0
   -3.4738  -20.7361   45.4739 H   0  0
   -4.0792  -23.1772   50.8738 H   0  0
   -3.6860  -24.1077   52.2976 H   0  0
   -5.4871  -24.9503   49.9967 H   0  0
   -5.9528  -24.6258   51.6704 H   0  0
   -4.4494  -28.7606   52.6749 H   0  0
   -6.0258  -29.9610   54.1763 H   0  0
   -7.2312  -27.4469   56.0996 H   0  0
   -9.7954  -29.9102   53.1160 H   0  0
  -10.6780  -29.9053   54.8803 H   0  0
   -8.9676  -31.2059   55.7392 H   0  0
   -8.0842  -31.2095   53.9752 H   0  0
   -9.0656  -27.0040   53.3667 H   0  0
   -7.4921  -25.7925   51.8746 H   0  0
   -4.0166  -27.9691   50.2143 H   0  0
   -3.0714  -27.4136   51.5989 H   0  0
   -2.0309  -26.6091   49.5391 H   0  0
   -3.5429  -25.9349   48.9729 H   0  0
  1  2  1  0
  2  3  1  0
  2  4  1  0
  4  5  2  0
  4  9  1  0
  5  6  1  0
  6  7  2  0
  7  8  1  0
  8  9  2  0
  9 10  1  0
 10 11  1  0
 10 20  1  0
 10 36  1  0
 11 12  2  0
 11 13  1  0
 13 14  1  0
 14 15  2  0
 14 19  1  0
 15 16  1  0
 16 17  2  0
 17 18  1  0
 18 19  2  0
 20 21  1  0
 21 22  1  0
 22 23  1  0
 22 35  1  0
 23 24  2  0
 23 34  1  0
 24 25  1  0
 25 26  2  0
 26 27  1  0
 26 33  1  0
 27 28  1  0
 27 31  1  0
 27 32  1  0
 28 29  2  0
 28 30  1  0
 31 32  1  0
 33 34  2  0
 35 36  1  0
  1 37  1  0
  1 38  1  0
  1 39  1  0
  2 40  1  0
  3 41  1  0
  3 42  1  0
  3 43  1  0
  5 44  1  0
  6 45  1  0
  7 46  1  0
  8 47  1  0
 13 48  1  0
 15 49  1  0
 17 50  1  0
 18 51  1  0
 20 52  1  0
 20 53  1  0
 21 54  1  0
 21 55  1  0
 24 56  1  0
 25 57  1  0
 30 58  1  0
 31 59  1  0
 31 60  1  0
 32 61  1  0
 32 62  1  0
 33 63  1  0
 34 64  1  0
 35 65  1  0
 35 66  1  0
 36 67  1  0
 36 68  1  0
M  END
> <Name>
Molecule

> <AbsoluteEnergy>
80.948

> <Clean Energy>
198.799

> <ConfNumber>
110

> <MOL_NUMBER>
8

> <RelativeEnergy>
19.399

> <POSE_NUMBER>
75

> <LibDockScore>
107.3093

> <HotSpots>
0.87,-24.32,52.78,A,63,5
-2.53,-21.12,45.98,A,16,18
-7.73,-27.92,56.98,P,70,30

$$$$
Molecule
  SciTegic05072616053D

 68 72  0  0  0  0            999 V2000
   -1.8708  -21.7066   48.3424 C   0  0  0  1  0  0
   -2.7095  -22.7663   49.0841 C   0  0  0  1  0  0
   -3.8271  -22.1088   49.9158 C   0  0  0  1  0  0
   -3.2496  -23.8207   48.1399 C   0  0  0  1  0  0
   -4.2240  -23.4010   47.2066 C   0  0  0  1  0  0
   -4.7766  -24.2967   46.2838 C   0  0  0  1  0  0
   -4.3459  -25.6244   46.2645 C   0  0  0  1  0  0
   -3.3725  -26.0578   47.1729 C   0  0  0  1  0  0
   -2.8230  -25.1904   48.1515 C   0  0  0  1  0  0
   -1.8112  -25.7197   49.1827 C   0  0  0  1  0  0
   -0.4104  -25.1276   48.9169 C   0  0  0  1  0  0
   -0.1329  -24.6762   47.8269 O   0  0  0  1  0  0
    0.5258  -25.1107   49.9434 N   0  0  0  1  0  0
    1.8213  -24.6031   49.9189 C   0  0  0  1  0  0
    2.5651  -24.5984   51.1291 C   0  0  0  1  0  0
    3.8387  -24.1124   51.1811 N   0  0  0  1  0  0
    4.3986  -23.6225   50.0392 C   0  0  0  1  0  0
    3.6777  -23.6192   48.8280 C   0  0  0  1  0  0
    2.4021  -24.1061   48.7758 N   0  0  0  1  0  0
   -2.3431  -25.3675   50.6303 C   0  0  0  1  0  0
   -2.4613  -26.5674   51.5850 C   0  0  0  1  0  0
   -3.2910  -27.6251   50.9462 N   0  0  0  1  0  0
   -4.5071  -28.0759   51.4659 C   0  0  0  1  0  0
   -4.8715  -29.4407   51.3606 C   0  0  0  1  0  0
   -6.0915  -29.9061   51.8789 C   0  0  0  1  0  0
   -6.9732  -29.0183   52.5175 C   0  0  0  1  0  0
   -8.2803  -29.5249   53.0943 C   0  0  0  1  0  0
   -8.2878  -29.6121   54.6239 C   0  0  0  1  0  0
   -7.3727  -29.1203   55.2457 O   0  0  0  1  0  0
   -9.2998  -30.2256   55.2478 O   0  0  0  1  0  0
   -9.5742  -29.1474   52.3888 C   0  0  0  1  0  0
   -9.0596  -30.5649   52.3028 C   0  0  0  1  0  0
   -6.6295  -27.6586   52.6244 C   0  0  0  1  0  0
   -5.4115  -27.1919   52.1026 C   0  0  0  1  0  0
   -2.7413  -28.1590   49.6698 C   0  0  0  1  0  0
   -1.5926  -27.2787   49.1095 C   0  0  0  1  0  0
   -1.4300  -21.0318   49.0762 H   0  0
   -2.5275  -21.1371   47.6847 H   0  0
   -1.0853  -22.1873   47.7592 H   0  0
   -2.0468  -23.2815   49.7795 H   0  0
   -4.4709  -21.5366   49.2478 H   0  0
   -3.3735  -21.4313   50.6392 H   0  0
   -4.4103  -22.8704   50.4334 H   0  0
   -4.5511  -22.3612   47.2052 H   0  0
   -5.5401  -23.9589   45.5831 H   0  0
   -4.7673  -26.3237   45.5423 H   0  0
   -3.0273  -27.0907   47.1268 H   0  0
    0.2107  -25.5427   50.8702 H   0  0
    2.1078  -24.9921   52.0368 H   0  0
    5.4148  -23.2290   50.0628 H   0  0
    4.1422  -23.2245   47.9244 H   0  0
   -1.6765  -24.6307   51.0785 H   0  0
   -3.3224  -24.8976   50.5397 H   0  0
   -1.4680  -26.9633   51.7965 H   0  0
   -2.9324  -26.2487   52.5149 H   0  0
   -4.1950  -30.1405   50.8699 H   0  0
   -6.3548  -30.9597   51.7852 H   0  0
   -9.3247  -31.1898   54.8329 H   0  0
   -9.3821  -28.5934   51.4699 H   0  0
  -10.4026  -29.0622   53.0921 H   0  0
   -9.6144  -31.2346   52.9599 H   0  0
   -8.5925  -30.7655   51.3386 H   0  0
   -7.3114  -26.9637   53.1144 H   0  0
   -5.1593  -26.1350   52.1891 H   0  0
   -2.3664  -29.1684   49.8387 H   0  0
   -3.5414  -28.2121   48.9315 H   0  0
   -1.4230  -27.5557   48.0690 H   0  0
   -0.6767  -27.5261   49.6462 H   0  0
  1  2  1  0
  2  3  1  0
  2  4  1  0
  4  5  2  0
  4  9  1  0
  5  6  1  0
  6  7  2  0
  7  8  1  0
  8  9  2  0
  9 10  1  0
 10 11  1  0
 10 20  1  0
 10 36  1  0
 11 12  2  0
 11 13  1  0
 13 14  1  0
 14 15  2  0
 14 19  1  0
 15 16  1  0
 16 17  2  0
 17 18  1  0
 18 19  2  0
 20 21  1  0
 21 22  1  0
 22 23  1  0
 22 35  1  0
 23 24  2  0
 23 34  1  0
 24 25  1  0
 25 26  2  0
 26 27  1  0
 26 33  1  0
 27 28  1  0
 27 31  1  0
 27 32  1  0
 28 29  2  0
 28 30  1  0
 31 32  1  0
 33 34  2  0
 35 36  1  0
  1 37  1  0
  1 38  1  0
  1 39  1  0
  2 40  1  0
  3 41  1  0
  3 42  1  0
  3 43  1  0
  5 44  1  0
  6 45  1  0
  7 46  1  0
  8 47  1  0
 13 48  1  0
 15 49  1  0
 17 50  1  0
 18 51  1  0
 20 52  1  0
 20 53  1  0
 21 54  1  0
 21 55  1  0
 24 56  1  0
 25 57  1  0
 30 58  1  0
 31 59  1  0
 31 60  1  0
 32 61  1  0
 32 62  1  0
 33 63  1  0
 34 64  1  0
 35 65  1  0
 35 66  1  0
 36 67  1  0
 36 68  1  0
M  END
> <Name>
Molecule

> <AbsoluteEnergy>
67.7412

> <Clean Energy>
198.799

> <ConfNumber>
17

> <MOL_NUMBER>
8

> <RelativeEnergy>
6.1922

> <POSE_NUMBER>
76

> <LibDockScore>
106.9355

> <HotSpots>
-3.33,-21.92,50.38,A,47,3
4.07,-23.72,49.78,A,37,18
-9.33,-29.92,51.19,A,52,32

$$$$
Molecule
  SciTegic05072616053D

 68 72  0  0  0  0            999 V2000
   -5.4703  -22.4901   47.4750 C   0  0  0  1  0  0
   -4.3755  -23.4823   47.0381 C   0  0  0  1  0  0
   -4.8258  -24.3151   45.8231 C   0  0  0  1  0  0
   -3.0462  -22.7931   46.8269 C   0  0  0  1  0  0
   -2.9965  -21.7936   45.8278 C   0  0  0  1  0  0
   -1.8087  -21.1147   45.5350 C   0  0  0  1  0  0
   -0.6443  -21.4232   46.2435 C   0  0  0  1  0  0
   -0.6736  -22.4014   47.2488 C   0  0  0  1  0  0
   -1.8658  -23.1006   47.5822 C   0  0  0  1  0  0
   -1.8580  -24.1389   48.7184 C   0  0  0  1  0  0
   -3.1524  -24.0339   49.5454 C   0  0  0  1  0  0
   -3.3912  -22.9837   50.1025 O   0  0  0  1  0  0
   -4.0107  -25.1164   49.6764 N   0  0  0  1  0  0
   -4.9001  -25.3641   50.7113 C   0  0  0  1  0  0
   -5.6253  -26.5824   50.7235 C   0  0  0  1  0  0
   -6.3830  -26.9377   51.8004 N   0  0  0  1  0  0
   -6.4845  -26.0708   52.8451 C   0  0  0  1  0  0
   -5.8125  -24.8339   52.8212 C   0  0  0  1  0  0
   -5.0447  -24.4840   51.7516 N   0  0  0  1  0  0
   -0.7571  -23.8882   49.8008 C   0  0  0  1  0  0
   -0.8478  -24.8565   51.0109 C   0  0  0  1  0  0
   -1.1763  -26.2567   50.5978 N   0  0  0  1  0  0
   -1.7326  -27.1913   51.4793 C   0  0  0  1  0  0
   -1.9025  -26.8941   52.8515 C   0  0  0  1  0  0
   -2.5463  -27.7953   53.7152 C   0  0  0  1  0  0
   -2.9936  -29.0447   53.2436 C   0  0  0  1  0  0
   -3.7141  -30.0136   54.1732 C   0  0  0  1  0  0
   -2.9935  -30.3409   55.4931 C   0  0  0  1  0  0
   -3.0219  -31.4751   55.9336 O   0  0  0  1  0  0
   -2.3464  -29.3846   56.1702 O   0  0  0  1  0  0
   -4.5299  -31.1153   53.5080 C   0  0  0  1  0  0
   -5.2372  -29.9855   54.2123 C   0  0  0  1  0  0
   -2.7766  -29.3779   51.8922 C   0  0  0  1  0  0
   -2.1555  -28.4603   51.0192 C   0  0  0  1  0  0
   -0.9007  -26.5917   49.1678 C   0  0  0  1  0  0
   -1.4914  -25.5620   48.1547 C   0  0  0  1  0  0
   -6.3687  -23.0519   47.7308 H   0  0
   -5.6929  -21.8258   46.6399 H   0  0
   -5.1349  -21.9100   48.3347 H   0  0
   -4.2190  -24.1889   47.8532 H   0  0
   -5.0531  -23.6374   45.0002 H   0  0
   -5.7289  -24.8634   46.0911 H   0  0
   -4.0401  -25.0106   45.5281 H   0  0
   -3.9025  -21.5469   45.2742 H   0  0
   -1.7916  -20.3496   44.7588 H   0  0
    0.2865  -20.9040   46.0151 H   0  0
    0.2441  -22.6320   47.7898 H   0  0
   -3.9832  -25.8418   48.8903 H   0  0
   -5.5765  -27.2449   49.8593 H   0  0
   -7.0927  -26.3372   53.7095 H   0  0
   -5.9073  -24.1507   53.6652 H   0  0
   -0.8428  -22.8636   50.1626 H   0  0
    0.2240  -23.9938   49.3379 H   0  0
    0.1056  -24.8570   51.5392 H   0  0
   -1.6160  -24.4999   51.6971 H   0  0
   -1.5274  -25.9495   53.2455 H   0  0
   -2.7011  -27.5253   54.7598 H   0  0
   -3.0721  -28.6429   56.3306 H   0  0
   -4.5322  -32.0269   54.1056 H   0  0
   -4.5555  -30.9941   52.4251 H   0  0
   -5.6416  -29.2606   53.5058 H   0  0
   -5.6169  -30.2928   55.1867 H   0  0
   -3.0910  -30.3523   51.5182 H   0  0
   -1.9993  -28.7329   49.9755 H   0  0
   -1.3147  -27.5764   48.9507 H   0  0
    0.1780  -26.6499   49.0224 H   0  0
   -0.7787  -25.4367   47.3396 H   0  0
   -2.3862  -25.9957   47.7082 H   0  0
  1  2  1  0
  2  3  1  0
  2  4  1  0
  4  5  2  0
  4  9  1  0
  5  6  1  0
  6  7  2  0
  7  8  1  0
  8  9  2  0
  9 10  1  0
 10 11  1  0
 10 20  1  0
 10 36  1  0
 11 12  2  0
 11 13  1  0
 13 14  1  0
 14 15  2  0
 14 19  1  0
 15 16  1  0
 16 17  2  0
 17 18  1  0
 18 19  2  0
 20 21  1  0
 21 22  1  0
 22 23  1  0
 22 35  1  0
 23 24  2  0
 23 34  1  0
 24 25  1  0
 25 26  2  0
 26 27  1  0
 26 33  1  0
 27 28  1  0
 27 31  1  0
 27 32  1  0
 28 29  2  0
 28 30  1  0
 31 32  1  0
 33 34  2  0
 35 36  1  0
  1 37  1  0
  1 38  1  0
  1 39  1  0
  2 40  1  0
  3 41  1  0
  3 42  1  0
  3 43  1  0
  5 44  1  0
  6 45  1  0
  7 46  1  0
  8 47  1  0
 13 48  1  0
 15 49  1  0
 17 50  1  0
 18 51  1  0
 20 52  1  0
 20 53  1  0
 21 54  1  0
 21 55  1  0
 24 56  1  0
 25 57  1  0
 30 58  1  0
 31 59  1  0
 31 60  1  0
 32 61  1  0
 32 62  1  0
 33 63  1  0
 34 64  1  0
 35 65  1  0
 35 66  1  0
 36 67  1  0
 36 68  1  0
M  END
> <Name>
Molecule

> <AbsoluteEnergy>
72.8261

> <Clean Energy>
198.799

> <ConfNumber>
46

> <MOL_NUMBER>
8

> <RelativeEnergy>
11.2771

> <POSE_NUMBER>
77

> <LibDockScore>
106.0634

> <HotSpots>
-5.53,-22.92,48.98,A,33,1
-1.73,-21.72,46.78,A,24,6
-6.33,-26.32,51.98,A,57,15

$$$$
Molecule
  SciTegic05072616053D

 68 72  0  0  0  0            999 V2000
   -1.8083  -22.4979   48.4218 C   0  0  0  1  0  0
   -1.3084  -23.9578   48.4683 C   0  0  0  1  0  0
   -1.0642  -24.4897   47.0372 C   0  0  0  1  0  0
   -0.0903  -24.1120   49.3551 C   0  0  0  1  0  0
    1.0643  -23.4054   48.9374 C   0  0  0  1  0  0
    2.2857  -23.5418   49.6025 C   0  0  0  1  0  0
    2.3780  -24.4008   50.6977 C   0  0  0  1  0  0
    1.2407  -25.0874   51.1496 C   0  0  0  1  0  0
   -0.0399  -24.9235   50.5451 C   0  0  0  1  0  0
   -1.2774  -25.6237   51.1703 C   0  0  0  1  0  0
   -1.0215  -26.1305   52.6200 C   0  0  0  1  0  0
   -0.1764  -25.5602   53.2794 O   0  0  0  1  0  0
   -1.7234  -27.1957   53.1877 N   0  0  0  1  0  0
   -1.4243  -27.8230   54.3948 C   0  0  0  1  0  0
   -2.2991  -28.8265   54.8971 C   0  0  0  1  0  0
   -2.0362  -29.4723   56.0705 N   0  0  0  1  0  0
   -0.9184  -29.1234   56.7776 C   0  0  0  1  0  0
   -0.0478  -28.1199   56.2987 C   0  0  0  1  0  0
   -0.3013  -27.4869   55.1176 N   0  0  0  1  0  0
   -2.4653  -24.6402   51.4359 C   0  0  0  1  0  0
   -3.7555  -25.3332   51.9387 C   0  0  0  1  0  0
   -4.1488  -26.5324   51.1293 N   0  0  0  1  0  0
   -5.2945  -27.2826   51.4484 C   0  0  0  1  0  0
   -6.5110  -26.6355   51.7857 C   0  0  0  1  0  0
   -7.6872  -27.3707   52.0305 C   0  0  0  1  0  0
   -7.6801  -28.7753   51.9596 C   0  0  0  1  0  0
   -8.9608  -29.5680   52.1901 C   0  0  0  1  0  0
   -9.4772  -29.5398   53.6322 C   0  0  0  1  0  0
  -10.5170  -30.1014   53.8981 O   0  0  0  1  0  0
   -8.7661  -28.8965   54.5647 O   0  0  0  1  0  0
   -9.9909  -29.6196   51.0679 C   0  0  0  1  0  0
   -9.1752  -30.8455   51.3901 C   0  0  0  1  0  0
   -6.4688  -29.4350   51.6736 C   0  0  0  1  0  0
   -5.2910  -28.7004   51.4367 C   0  0  0  1  0  0
   -3.2862  -26.8447   49.9425 C   0  0  0  1  0  0
   -1.7576  -26.7557   50.1927 C   0  0  0  1  0  0
   -2.7385  -22.4571   47.8550 H   0  0
   -1.0592  -21.8798   47.9270 H   0  0
   -1.9778  -22.1309   49.4341 H   0  0
   -2.0891  -24.5691   48.9210 H   0  0
   -0.3175  -23.8651   46.5469 H   0  0
   -1.9968  -24.4424   46.4749 H   0  0
   -0.7117  -25.5203   47.0791 H   0  0
    0.9984  -22.7396   48.0769 H   0  0
    3.1590  -22.9817   49.2683 H   0  0
    3.3340  -24.5388   51.2027 H   0  0
    1.3400  -25.7706   51.9931 H   0  0
   -2.5691  -27.5641   52.6454 H   0  0
   -3.1962  -29.0844   54.3342 H   0  0
   -0.6975  -29.6248   57.7199 H   0  0
    0.8347  -27.8488   56.8782 H   0  0
   -2.1528  -23.9022   52.1747 H   0  0
   -2.6919  -24.1035   50.5147 H   0  0
   -4.5741  -24.6137   51.9204 H   0  0
   -3.6105  -25.6408   52.9743 H   0  0
   -6.5360  -25.5481   51.8568 H   0  0
   -8.6106  -26.8467   52.2770 H   0  0
   -8.6628  -27.9168   54.2013 H   0  0
   -9.6286  -29.1190   50.1700 H   0  0
  -11.0049  -29.6954   51.4606 H   0  0
   -9.7536  -31.5777   51.9536 H   0  0
   -8.3769  -31.0006   50.6643 H   0  0
   -6.4429  -30.5240   51.6353 H   0  0
   -4.3595  -29.2315   51.2407 H   0  0
   -3.5242  -27.8503   49.5957 H   0  0
   -3.5467  -26.1618   49.1339 H   0  0
   -1.2594  -26.6178   49.2331 H   0  0
   -1.4162  -27.7157   50.5799 H   0  0
  1  2  1  0
  2  3  1  0
  2  4  1  0
  4  5  2  0
  4  9  1  0
  5  6  1  0
  6  7  2  0
  7  8  1  0
  8  9  2  0
  9 10  1  0
 10 11  1  0
 10 20  1  0
 10 36  1  0
 11 12  2  0
 11 13  1  0
 13 14  1  0
 14 15  2  0
 14 19  1  0
 15 16  1  0
 16 17  2  0
 17 18  1  0
 18 19  2  0
 20 21  1  0
 21 22  1  0
 22 23  1  0
 22 35  1  0
 23 24  2  0
 23 34  1  0
 24 25  1  0
 25 26  2  0
 26 27  1  0
 26 33  1  0
 27 28  1  0
 27 31  1  0
 27 32  1  0
 28 29  2  0
 28 30  1  0
 31 32  1  0
 33 34  2  0
 35 36  1  0
  1 37  1  0
  1 38  1  0
  1 39  1  0
  2 40  1  0
  3 41  1  0
  3 42  1  0
  3 43  1  0
  5 44  1  0
  6 45  1  0
  7 46  1  0
  8 47  1  0
 13 48  1  0
 15 49  1  0
 17 50  1  0
 18 51  1  0
 20 52  1  0
 20 53  1  0
 21 54  1  0
 21 55  1  0
 24 56  1  0
 25 57  1  0
 30 58  1  0
 31 59  1  0
 31 60  1  0
 32 61  1  0
 32 62  1  0
 33 63  1  0
 34 64  1  0
 35 65  1  0
 35 66  1  0
 36 67  1  0
 36 68  1  0
M  END
> <Name>
Molecule

> <AbsoluteEnergy>
77.2174

> <Clean Energy>
198.799

> <ConfNumber>
86

> <MOL_NUMBER>
8

> <RelativeEnergy>
15.6684

> <POSE_NUMBER>
78

> <LibDockScore>
105.8223

> <HotSpots>
2.67,-23.92,48.98,A,32,6
-6.33,-26.32,51.98,A,57,24
-9.33,-29.92,51.19,A,52,32

$$$$
Molecule
  SciTegic05072616053D

 68 72  0  0  0  0            999 V2000
   -5.3559  -21.7677   50.2645 C   0  0  0  1  0  0
   -4.0278  -22.5394   50.1541 C   0  0  0  1  0  0
   -2.8342  -21.6681   50.5849 C   0  0  0  1  0  0
   -3.8250  -23.1287   48.7737 C   0  0  0  1  0  0
   -3.7888  -22.2202   47.6929 C   0  0  0  1  0  0
   -3.6017  -22.6597   46.3775 C   0  0  0  1  0  0
   -3.4462  -24.0232   46.1205 C   0  0  0  1  0  0
   -3.4806  -24.9440   47.1764 C   0  0  0  1  0  0
   -3.6676  -24.5306   48.5215 C   0  0  0  1  0  0
   -3.6892  -25.5723   49.6485 C   0  0  0  1  0  0
   -2.5664  -25.3167   50.6673 C   0  0  0  1  0  0
   -2.8478  -25.2034   51.8383 O   0  0  0  1  0  0
   -1.2494  -25.2096   50.2364 N   0  0  0  1  0  0
   -0.1179  -25.0060   51.0177 C   0  0  0  1  0  0
   -0.0758  -25.2689   52.4137 C   0  0  0  1  0  0
    1.0562  -25.0432   53.1414 N   0  0  0  1  0  0
    2.1623  -24.5675   52.5035 C   0  0  0  1  0  0
    2.1414  -24.3155   51.1187 C   0  0  0  1  0  0
    1.0085  -24.5342   50.3917 N   0  0  0  1  0  0
   -3.4942  -27.0368   49.1670 C   0  0  0  1  0  0
   -3.5259  -28.0949   50.2904 C   0  0  0  1  0  0
   -4.5242  -27.8687   51.3921 N   0  0  0  1  0  0
   -4.6958  -28.8282   52.4046 C   0  0  0  1  0  0
   -5.6363  -28.6309   53.4481 C   0  0  0  1  0  0
   -5.7831  -29.5652   54.4862 C   0  0  0  1  0  0
   -5.0082  -30.7341   54.5012 C   0  0  0  1  0  0
   -5.1563  -31.7413   55.6181 C   0  0  0  1  0  0
   -4.0770  -31.6175   56.6858 C   0  0  0  1  0  0
   -4.3255  -31.0246   57.7145 O   0  0  0  1  0  0
   -2.8796  -32.1715   56.4593 O   0  0  0  1  0  0
   -5.6511  -33.1376   55.2654 C   0  0  0  1  0  0
   -6.5407  -32.2036   56.0561 C   0  0  0  1  0  0
   -4.0903  -30.9633   53.4621 C   0  0  0  1  0  0
   -3.9345  -30.0224   52.4301 C   0  0  0  1  0  0
   -5.3104  -26.5902   51.4365 C   0  0  0  1  0  0
   -5.1201  -25.6266   50.2511 C   0  0  0  1  0  0
   -5.3002  -20.8849   49.6276 H   0  0
   -5.4902  -21.4509   51.2988 H   0  0
   -6.1887  -22.3996   49.9558 H   0  0
   -4.0859  -23.3787   50.8471 H   0  0
   -2.9877  -21.3521   51.6167 H   0  0
   -2.7977  -20.7861   49.9456 H   0  0
   -1.9041  -22.2301   50.5003 H   0  0
   -3.9091  -21.1545   47.8874 H   0  0
   -3.5775  -21.9414   45.5580 H   0  0
   -3.2980  -24.3716   45.0984 H   0  0
   -3.3606  -26.0054   46.9592 H   0  0
   -1.0879  -25.2935   49.1820 H   0  0
   -0.9638  -25.6578   52.9121 H   0  0
    3.0734  -24.3800   53.0718 H   0  0
    3.0379  -23.9426   50.6235 H   0  0
   -2.5398  -27.1105   48.6456 H   0  0
   -4.2736  -27.2736   48.4427 H   0  0
   -2.5328  -28.1578   50.7353 H   0  0
   -3.7241  -29.0686   49.8424 H   0  0
   -6.2579  -27.7355   53.4441 H   0  0
   -6.5026  -29.3811   55.2840 H   0  0
   -2.5447  -31.7453   55.5601 H   0  0
   -5.1971  -33.8959   55.9033 H   0  0
   -5.9605  -33.2001   54.2221 H   0  0
   -7.3228  -31.7700   55.4328 H   0  0
   -6.5581  -32.4648   57.1142 H   0  0
   -3.4955  -31.8767   53.4566 H   0  0
   -3.2146  -30.2151   51.6346 H   0  0
   -6.3687  -26.8403   51.5106 H   0  0
   -5.0555  -26.0609   52.3546 H   0  0
   -5.3992  -24.6233   50.5730 H   0  0
   -5.8191  -25.9064   49.4629 H   0  0
  1  2  1  0
  2  3  1  0
  2  4  1  0
  4  5  2  0
  4  9  1  0
  5  6  1  0
  6  7  2  0
  7  8  1  0
  8  9  2  0
  9 10  1  0
 10 11  1  0
 10 20  1  0
 10 36  1  0
 11 12  2  0
 11 13  1  0
 13 14  1  0
 14 15  2  0
 14 19  1  0
 15 16  1  0
 16 17  2  0
 17 18  1  0
 18 19  2  0
 20 21  1  0
 21 22  1  0
 22 23  1  0
 22 35  1  0
 23 24  2  0
 23 34  1  0
 24 25  1  0
 25 26  2  0
 26 27  1  0
 26 33  1  0
 27 28  1  0
 27 31  1  0
 27 32  1  0
 28 29  2  0
 28 30  1  0
 31 32  1  0
 33 34  2  0
 35 36  1  0
  1 37  1  0
  1 38  1  0
  1 39  1  0
  2 40  1  0
  3 41  1  0
  3 42  1  0
  3 43  1  0
  5 44  1  0
  6 45  1  0
  7 46  1  0
  8 47  1  0
 13 48  1  0
 15 49  1  0
 17 50  1  0
 18 51  1  0
 20 52  1  0
 20 53  1  0
 21 54  1  0
 21 55  1  0
 24 56  1  0
 25 57  1  0
 30 58  1  0
 31 59  1  0
 31 60  1  0
 32 61  1  0
 32 62  1  0
 33 63  1  0
 34 64  1  0
 35 65  1  0
 35 66  1  0
 36 67  1  0
 36 68  1  0
M  END
> <Name>
Molecule

> <AbsoluteEnergy>
63.0162

> <Clean Energy>
198.799

> <ConfNumber>
3

> <MOL_NUMBER>
8

> <RelativeEnergy>
1.46716

> <POSE_NUMBER>
79

> <LibDockScore>
105.7818

> <HotSpots>
-3.53,-22.32,46.59,A,20,6
2.27,-24.92,52.19,A,58,17
-3.33,-32.52,56.19,P,67,30

$$$$
Molecule
  SciTegic05072616053D

 68 72  0  0  0  0            999 V2000
    1.8165  -26.1884   47.3535 C   0  0  0  1  0  0
    1.2730  -25.2266   48.4318 C   0  0  0  1  0  0
    2.4323  -24.6654   49.2872 C   0  0  0  1  0  0
    0.4160  -24.1302   47.8338 C   0  0  0  1  0  0
    1.0774  -23.2586   46.9339 C   0  0  0  1  0  0
    0.4348  -22.1424   46.3916 C   0  0  0  1  0  0
   -0.8855  -21.8699   46.7498 C   0  0  0  1  0  0
   -1.5717  -22.7359   47.6147 C   0  0  0  1  0  0
   -0.9782  -23.9231   48.1348 C   0  0  0  1  0  0
   -1.8342  -24.8957   48.9915 C   0  0  0  1  0  0
   -3.3338  -24.4835   49.0634 C   0  0  0  1  0  0
   -3.9272  -24.3168   48.0173 O   0  0  0  1  0  0
   -4.0171  -24.3092   50.2686 N   0  0  0  1  0  0
   -5.3088  -23.8083   50.4127 C   0  0  0  1  0  0
   -5.6062  -22.9443   51.5035 C   0  0  0  1  0  0
   -6.8565  -22.4240   51.6741 N   0  0  0  1  0  0
   -7.8381  -22.7648   50.7844 C   0  0  0  1  0  0
   -7.5616  -23.6319   49.7046 C   0  0  0  1  0  0
   -6.3080  -24.1378   49.5242 N   0  0  0  1  0  0
   -1.9767  -26.3138   48.3451 C   0  0  0  1  0  0
   -2.7162  -27.3405   49.2376 C   0  0  0  1  0  0
   -2.2152  -27.3808   50.6501 N   0  0  0  1  0  0
   -2.7765  -28.2553   51.5973 C   0  0  0  1  0  0
   -3.8717  -29.0882   51.2519 C   0  0  0  1  0  0
   -4.3943  -30.0255   52.1642 C   0  0  0  1  0  0
   -3.8475  -30.1491   53.4541 C   0  0  0  1  0  0
   -4.3904  -31.1874   54.4282 C   0  0  0  1  0  0
   -5.6123  -30.7304   55.2314 C   0  0  0  1  0  0
   -6.2990  -31.5605   55.7854 O   0  0  0  1  0  0
   -5.8913  -29.4243   55.3036 O   0  0  0  1  0  0
   -4.3070  -32.6583   54.0376 C   0  0  0  1  0  0
   -3.4032  -32.1195   55.1170 C   0  0  0  1  0  0
   -2.7914  -29.2957   53.8290 C   0  0  0  1  0  0
   -2.2742  -28.3531   52.9196 C   0  0  0  1  0  0
   -1.0581  -26.4816   50.9704 C   0  0  0  1  0  0
   -1.1619  -25.0410   50.4038 C   0  0  0  1  0  0
    2.3404  -27.0109   47.8404 H   0  0
    2.5133  -25.6485   46.7123 H   0  0
    0.9933  -26.5792   46.7554 H   0  0
    0.6173  -25.7939   49.0924 H   0  0
    3.1271  -24.1305   48.6397 H   0  0
    2.9542  -25.4929   49.7678 H   0  0
    2.0401  -23.9877   50.0455 H   0  0
    2.1118  -23.4634   46.6580 H   0  0
    0.9609  -21.4902   45.6945 H   0  0
   -1.3845  -20.9837   46.3576 H   0  0
   -2.5953  -22.4921   47.8991 H   0  0
   -3.5008  -24.5859   51.1640 H   0  0
   -4.8207  -22.6932   52.2163 H   0  0
   -8.8436  -22.3631   50.9101 H   0  0
   -8.3572  -23.8992   49.0091 H   0  0
   -2.5138  -26.2181   47.4015 H   0  0
   -0.9830  -26.6992   48.1169 H   0  0
   -2.6095  -28.3326   48.7990 H   0  0
   -3.7788  -27.0980   49.2487 H   0  0
   -4.3175  -29.0011   50.2611 H   0  0
   -5.2294  -30.6603   51.8681 H   0  0
   -5.9790  -29.1086   54.3060 H   0  0
   -3.7747  -32.7918   53.0958 H   0  0
   -5.1368  -33.2292   54.4544 H   0  0
   -3.7487  -32.4039   56.1109 H   0  0
   -2.3876  -31.9652   54.7524 H   0  0
   -2.3707  -29.3656   54.8321 H   0  0
   -1.4729  -27.6863   53.2381 H   0  0
   -0.9540  -26.4228   52.0538 H   0  0
   -0.1455  -26.9402   50.5897 H   0  0
   -0.1586  -24.6178   50.3541 H   0  0
   -1.7169  -24.4306   51.1162 H   0  0
  1  2  1  0
  2  3  1  0
  2  4  1  0
  4  5  2  0
  4  9  1  0
  5  6  1  0
  6  7  2  0
  7  8  1  0
  8  9  2  0
  9 10  1  0
 10 11  1  0
 10 20  1  0
 10 36  1  0
 11 12  2  0
 11 13  1  0
 13 14  1  0
 14 15  2  0
 14 19  1  0
 15 16  1  0
 16 17  2  0
 17 18  1  0
 18 19  2  0
 20 21  1  0
 21 22  1  0
 22 23  1  0
 22 35  1  0
 23 24  2  0
 23 34  1  0
 24 25  1  0
 25 26  2  0
 26 27  1  0
 26 33  1  0
 27 28  1  0
 27 31  1  0
 27 32  1  0
 28 29  2  0
 28 30  1  0
 31 32  1  0
 33 34  2  0
 35 36  1  0
  1 37  1  0
  1 38  1  0
  1 39  1  0
  2 40  1  0
  3 41  1  0
  3 42  1  0
  3 43  1  0
  5 44  1  0
  6 45  1  0
  7 46  1  0
  8 47  1  0
 13 48  1  0
 15 49  1  0
 17 50  1  0
 18 51  1  0
 20 52  1  0
 20 53  1  0
 21 54  1  0
 21 55  1  0
 24 56  1  0
 25 57  1  0
 30 58  1  0
 31 59  1  0
 31 60  1  0
 32 61  1  0
 32 62  1  0
 33 63  1  0
 34 64  1  0
 35 65  1  0
 35 66  1  0
 36 67  1  0
 36 68  1  0
M  END
> <Name>
Molecule

> <AbsoluteEnergy>
77.2174

> <Clean Energy>
198.799

> <ConfNumber>
86

> <MOL_NUMBER>
8

> <RelativeEnergy>
15.6684

> <POSE_NUMBER>
80

> <LibDockScore>
105.6902

> <HotSpots>
1.87,-24.92,46.78,A,22,5
-5.13,-23.32,51.38,A,54,15
-4.13,-31.12,56.59,A,79,32

$$$$
Molecule
  SciTegic05072616053D

 68 72  0  0  0  0            999 V2000
   -3.6379  -24.4084   46.7098 C   0  0  0  1  0  0
   -2.9102  -25.7448   46.9492 C   0  0  0  1  0  0
   -3.1285  -26.7273   45.7832 C   0  0  0  1  0  0
   -1.4425  -25.5407   47.2531 C   0  0  0  1  0  0
   -0.6699  -24.9263   46.2443 C   0  0  0  1  0  0
    0.6995  -24.6989   46.4141 C   0  0  0  1  0  0
    1.3222  -25.0838   47.6036 C   0  0  0  1  0  0
    0.5743  -25.6901   48.6215 C   0  0  0  1  0  0
   -0.8169  -25.9285   48.4820 C   0  0  0  1  0  0
   -1.5932  -26.5836   49.6326 C   0  0  0  1  0  0
   -2.9559  -25.9019   49.8423 C   0  0  0  1  0  0
   -3.9490  -26.5882   49.9525 O   0  0  0  1  0  0
   -3.0426  -24.5159   49.9025 N   0  0  0  1  0  0
   -4.1988  -23.7554   50.0401 C   0  0  0  1  0  0
   -4.1726  -22.3845   49.6710 C   0  0  0  1  0  0
   -5.2817  -21.5975   49.7855 N   0  0  0  1  0  0
   -6.4301  -22.1517   50.2679 C   0  0  0  1  0  0
   -6.4717  -23.5104   50.6434 C   0  0  0  1  0  0
   -5.3637  -24.2946   50.5269 N   0  0  0  1  0  0
   -0.8836  -26.4690   51.0297 C   0  0  0  1  0  0
   -1.6975  -27.1017   52.1887 C   0  0  0  1  0  0
   -2.4124  -28.3261   51.7269 N   0  0  0  1  0  0
   -3.6420  -28.7149   52.2517 C   0  0  0  1  0  0
   -4.5245  -29.5258   51.5026 C   0  0  0  1  0  0
   -5.7937  -29.8532   52.0005 C   0  0  0  1  0  0
   -6.2062  -29.3768   53.2552 C   0  0  0  1  0  0
   -7.6016  -29.6717   53.7502 C   0  0  0  1  0  0
   -8.5257  -28.4717   53.5829 C   0  0  0  1  0  0
   -8.8429  -28.1318   52.4664 O   0  0  0  1  0  0
   -8.9625  -27.8104   54.6541 O   0  0  0  1  0  0
   -7.7994  -30.6155   54.9263 C   0  0  0  1  0  0
   -8.1897  -31.0575   53.5385 C   0  0  0  1  0  0
   -5.3203  -28.6115   54.0326 C   0  0  0  1  0  0
   -4.0469  -28.2860   53.5369 C   0  0  0  1  0  0
   -1.7410  -29.0264   50.6019 C   0  0  0  1  0  0
   -1.7322  -28.1269   49.3454 C   0  0  0  1  0  0
   -4.7032  -24.6091   46.5963 H   0  0
   -3.2606  -23.9686   45.7866 H   0  0
   -3.4710  -23.7283   47.5451 H   0  0
   -3.3537  -26.1989   47.8353 H   0  0
   -2.7556  -26.2676   44.8679 H   0  0
   -4.1982  -26.9081   45.6777 H   0  0
   -2.6062  -27.6652   45.9720 H   0  0
   -1.1503  -24.6229   45.3141 H   0  0
    1.2781  -24.2236   45.6220 H   0  0
    2.3900  -24.9125   47.7400 H   0  0
    1.0742  -25.9860   49.5438 H   0  0
   -2.1210  -23.9763   49.8358 H   0  0
   -3.2481  -21.9520   49.2885 H   0  0
   -7.3258  -21.5380   50.3644 H   0  0
   -7.3975  -23.9365   51.0299 H   0  0
   -0.7109  -25.4165   51.2543 H   0  0
    0.0886  -26.9586   50.9736 H   0  0
   -1.0212  -27.3658   53.0018 H   0  0
   -2.4252  -26.3782   52.5562 H   0  0
   -4.2150  -29.9008   50.5270 H   0  0
   -6.4628  -30.4801   51.4111 H   0  0
   -8.0894  -27.5233   55.1619 H   0  0
   -8.6702  -30.3376   55.5201 H   0  0
   -6.8571  -31.0636   55.2416 H   0  0
   -7.4564  -31.7427   53.1131 H   0  0
   -9.2689  -31.0153   53.3910 H   0  0
   -5.6220  -28.2696   55.0227 H   0  0
   -3.3640  -27.6969   54.1491 H   0  0
   -2.2741  -29.9510   50.3804 H   0  0
   -0.7151  -29.2632   50.8839 H   0  0
   -0.9105  -28.4387   48.7006 H   0  0
   -2.6541  -28.2972   48.7894 H   0  0
  1  2  1  0
  2  3  1  0
  2  4  1  0
  4  5  2  0
  4  9  1  0
  5  6  1  0
  6  7  2  0
  7  8  1  0
  8  9  2  0
  9 10  1  0
 10 11  1  0
 10 20  1  0
 10 36  1  0
 11 12  2  0
 11 13  1  0
 13 14  1  0
 14 15  2  0
 14 19  1  0
 15 16  1  0
 16 17  2  0
 17 18  1  0
 18 19  2  0
 20 21  1  0
 21 22  1  0
 22 23  1  0
 22 35  1  0
 23 24  2  0
 23 34  1  0
 24 25  1  0
 25 26  2  0
 26 27  1  0
 26 33  1  0
 27 28  1  0
 27 31  1  0
 27 32  1  0
 28 29  2  0
 28 30  1  0
 31 32  1  0
 33 34  2  0
 35 36  1  0
  1 37  1  0
  1 38  1  0
  1 39  1  0
  2 40  1  0
  3 41  1  0
  3 42  1  0
  3 43  1  0
  5 44  1  0
  6 45  1  0
  7 46  1  0
  8 47  1  0
 13 48  1  0
 15 49  1  0
 17 50  1  0
 18 51  1  0
 20 52  1  0
 20 53  1  0
 21 54  1  0
 21 55  1  0
 24 56  1  0
 25 57  1  0
 30 58  1  0
 31 59  1  0
 31 60  1  0
 32 61  1  0
 32 62  1  0
 33 63  1  0
 34 64  1  0
 35 65  1  0
 35 66  1  0
 36 67  1  0
 36 68  1  0
M  END
> <Name>
Molecule

> <AbsoluteEnergy>
63.53

> <Clean Energy>
198.799

> <ConfNumber>
4

> <MOL_NUMBER>
8

> <RelativeEnergy>
1.98096

> <POSE_NUMBER>
81

> <LibDockScore>
104.7215

> <HotSpots>
1.27,-23.52,47.59,A,27,6
-6.53,-23.32,50.38,A,45,18
-8.53,-31.32,51.19,A,51,32

$$$$
Molecule
  SciTegic05072616053D

 68 72  0  0  0  0            999 V2000
    0.8068  -23.1712   53.6146 C   0  0  0  1  0  0
    0.4548  -24.2720   52.5944 C   0  0  0  1  0  0
    0.9953  -25.6443   53.0381 C   0  0  0  1  0  0
    0.8954  -23.9229   51.1905 C   0  0  0  1  0  0
    2.2882  -23.8783   50.9691 C   0  0  0  1  0  0
    2.8167  -23.5212   49.7248 C   0  0  0  1  0  0
    1.9542  -23.2034   48.6733 C   0  0  0  1  0  0
    0.5676  -23.2648   48.8626 C   0  0  0  1  0  0
   -0.0003  -23.6462   50.1060 C   0  0  0  1  0  0
   -1.5252  -23.7529   50.2340 C   0  0  0  1  0  0
   -1.9429  -25.2160   50.4724 C   0  0  0  1  0  0
   -2.5181  -25.5072   51.4966 O   0  0  0  1  0  0
   -1.6732  -26.1920   49.5247 N   0  0  0  1  0  0
   -1.5647  -27.5564   49.7681 C   0  0  0  1  0  0
   -1.9986  -28.1564   50.9818 C   0  0  0  1  0  0
   -1.8676  -29.4960   51.1966 N   0  0  0  1  0  0
   -1.3201  -30.2644   50.2145 C   0  0  0  1  0  0
   -0.9010  -29.6876   48.9978 C   0  0  0  1  0  0
   -1.0276  -28.3459   48.7853 N   0  0  0  1  0  0
   -2.0427  -22.7983   51.3792 C   0  0  0  1  0  0
   -3.5281  -22.3625   51.2416 C   0  0  0  1  0  0
   -4.2782  -23.3940   50.4792 N   0  0  0  1  0  0
   -5.1559  -24.3129   51.0551 C   0  0  0  1  0  0
   -5.0714  -24.6269   52.4328 C   0  0  0  1  0  0
   -5.7945  -25.7047   52.9639 C   0  0  0  1  0  0
   -6.6204  -26.4768   52.1305 C   0  0  0  1  0  0
   -7.2482  -27.7401   52.6608 C   0  0  0  1  0  0
   -6.1895  -28.8171   52.8828 C   0  0  0  1  0  0
   -5.3929  -28.6728   53.7824 O   0  0  0  1  0  0
   -6.1365  -29.8829   52.0862 O   0  0  0  1  0  0
   -8.4047  -27.6527   53.6426 C   0  0  0  1  0  0
   -8.6539  -28.1297   52.2327 C   0  0  0  1  0  0
   -6.8270  -26.0826   50.7991 C   0  0  0  1  0  0
   -6.1106  -24.9989   50.2684 C   0  0  0  1  0  0
   -3.8484  -23.4769   49.0536 C   0  0  0  1  0  0
   -2.3114  -23.2812   48.9525 C   0  0  0  1  0  0
    1.8912  -23.1215   53.7133 H   0  0
    0.3749  -23.4388   54.5789 H   0  0
    0.4167  -22.2085   53.2842 H   0  0
   -0.6328  -24.3394   52.5675 H   0  0
    0.5619  -25.8928   54.0069 H   0  0
    2.0782  -25.5755   53.1413 H   0  0
    0.7371  -26.4090   52.3055 H   0  0
    2.9664  -24.1275   51.7852 H   0  0
    3.8961  -23.4910   49.5762 H   0  0
    2.3598  -22.9077   47.7058 H   0  0
   -0.0928  -23.0129   48.0328 H   0  0
   -1.5363  -25.8653   48.5150 H   0  0
   -2.4450  -27.5325   51.7561 H   0  0
   -1.2046  -31.3370   50.3706 H   0  0
   -0.4720  -30.3194   48.2201 H   0  0
   -1.4183  -21.9051   51.4005 H   0  0
   -1.9142  -23.3004   52.3381 H   0  0
   -3.5812  -21.4108   50.7129 H   0  0
   -3.9680  -22.2526   52.2328 H   0  0
   -4.4390  -24.0259   53.0863 H   0  0
   -5.7155  -25.9435   54.0245 H   0  0
   -6.0456  -29.4834   51.1194 H   0  0
   -8.7338  -26.6231   53.7829 H   0  0
   -8.3911  -28.4809   54.3511 H   0  0
   -8.7736  -29.2123   52.1896 H   0  0
   -9.1147  -27.3541   51.6210 H   0  0
   -7.5441  -26.6185   50.1773 H   0  0
   -6.2914  -24.6830   49.2410 H   0  0
   -4.3505  -22.7000   48.4770 H   0  0
   -4.1160  -24.4537   48.6507 H   0  0
   -1.9432  -23.8341   48.0883 H   0  0
   -2.1023  -22.2256   48.7792 H   0  0
  1  2  1  0
  2  3  1  0
  2  4  1  0
  4  5  2  0
  4  9  1  0
  5  6  1  0
  6  7  2  0
  7  8  1  0
  8  9  2  0
  9 10  1  0
 10 11  1  0
 10 20  1  0
 10 36  1  0
 11 12  2  0
 11 13  1  0
 13 14  1  0
 14 15  2  0
 14 19  1  0
 15 16  1  0
 16 17  2  0
 17 18  1  0
 18 19  2  0
 20 21  1  0
 21 22  1  0
 22 23  1  0
 22 35  1  0
 23 24  2  0
 23 34  1  0
 24 25  1  0
 25 26  2  0
 26 27  1  0
 26 33  1  0
 27 28  1  0
 27 31  1  0
 27 32  1  0
 28 29  2  0
 28 30  1  0
 31 32  1  0
 33 34  2  0
 35 36  1  0
  1 37  1  0
  1 38  1  0
  1 39  1  0
  2 40  1  0
  3 41  1  0
  3 42  1  0
  3 43  1  0
  5 44  1  0
  6 45  1  0
  7 46  1  0
  8 47  1  0
 13 48  1  0
 15 49  1  0
 17 50  1  0
 18 51  1  0
 20 52  1  0
 20 53  1  0
 21 54  1  0
 21 55  1  0
 24 56  1  0
 25 57  1  0
 30 58  1  0
 31 59  1  0
 31 60  1  0
 32 61  1  0
 32 62  1  0
 33 63  1  0
 34 64  1  0
 35 65  1  0
 35 66  1  0
 36 67  1  0
 36 68  1  0
M  END
> <Name>
Molecule

> <AbsoluteEnergy>
69.0888

> <Clean Energy>
198.799

> <ConfNumber>
23

> <MOL_NUMBER>
8

> <RelativeEnergy>
7.53983

> <POSE_NUMBER>
82

> <LibDockScore>
103.3285

> <HotSpots>
0.47,-23.32,53.78,A,67,1
2.67,-22.92,49.98,A,39,6
-0.73,-30.12,49.98,A,38,18

$$$$
Molecule
  SciTegic05072616053D

 68 72  0  0  0  0            999 V2000
   -0.9118  -25.7910   46.5654 C   0  0  0  1  0  0
   -2.3073  -25.7968   47.2204 C   0  0  0  1  0  0
   -3.4159  -26.0659   46.1851 C   0  0  0  1  0  0
   -2.3756  -26.7571   48.3872 C   0  0  0  1  0  0
   -2.3212  -28.1337   48.0683 C   0  0  0  1  0  0
   -2.3094  -29.1097   49.0691 C   0  0  0  1  0  0
   -2.3380  -28.7213   50.4069 C   0  0  0  1  0  0
   -2.4160  -27.3643   50.7461 C   0  0  0  1  0  0
   -2.4772  -26.3486   49.7586 C   0  0  0  1  0  0
   -2.6252  -24.8671   50.1696 C   0  0  0  1  0  0
   -1.3204  -24.1478   49.8120 C   0  0  0  1  0  0
   -1.3155  -23.2079   49.0516 O   0  0  0  1  0  0
   -0.1629  -24.6324   50.4081 N   0  0  0  1  0  0
    1.1596  -24.2559   50.2455 C   0  0  0  1  0  0
    1.6048  -23.2244   49.3775 C   0  0  0  1  0  0
    2.9317  -22.9208   49.2767 N   0  0  0  1  0  0
    3.8301  -23.6260   50.0224 C   0  0  0  1  0  0
    3.3977  -24.6530   50.8853 C   0  0  0  1  0  0
    2.0761  -24.9534   50.9876 N   0  0  0  1  0  0
   -2.7915  -24.5561   51.7207 C   0  0  0  1  0  0
   -4.2510  -24.5057   52.2337 C   0  0  0  1  0  0
   -5.0150  -25.5136   51.4687 N   0  0  0  1  0  0
   -5.2955  -26.7928   51.9589 C   0  0  0  1  0  0
   -5.6600  -27.8553   51.0974 C   0  0  0  1  0  0
   -5.6233  -29.1850   51.5546 C   0  0  0  1  0  0
   -5.2648  -29.4589   52.8855 C   0  0  0  1  0  0
   -4.9902  -30.8654   53.3501 C   0  0  0  1  0  0
   -3.5292  -31.0014   53.7659 C   0  0  0  1  0  0
   -2.8461  -31.8688   53.2714 O   0  0  0  1  0  0
   -3.0248  -30.1365   54.6492 O   0  0  0  1  0  0
   -6.0439  -31.6196   54.1404 C   0  0  0  1  0  0
   -5.7189  -32.0450   52.7283 C   0  0  0  1  0  0
   -5.1171  -28.4028   53.7944 C   0  0  0  1  0  0
   -5.1469  -27.0810   53.3390 C   0  0  0  1  0  0
   -5.2197  -25.0722   50.0505 C   0  0  0  1  0  0
   -3.9550  -24.3016   49.5476 C   0  0  0  1  0  0
   -0.8906  -25.0166   45.7986 H   0  0
   -0.7442  -26.7599   46.0950 H   0  0
   -0.1418  -25.5993   47.3127 H   0  0
   -2.4812  -24.7991   47.6235 H   0  0
   -3.2283  -27.0326   45.7178 H   0  0
   -3.3746  -25.2893   45.4214 H   0  0
   -4.3938  -26.0662   46.6665 H   0  0
   -2.2878  -28.4395   47.0226 H   0  0
   -2.2781  -30.1667   48.8048 H   0  0
   -2.2995  -29.4760   51.1924 H   0  0
   -2.4300  -27.0813   51.7986 H   0  0
   -0.3190  -25.4269   51.1076 H   0  0
    0.8785  -22.6684   48.7847 H   0  0
    4.8925  -23.3931   49.9503 H   0  0
    4.1272  -25.2094   51.4739 H   0  0
   -2.3147  -23.6005   51.9388 H   0  0
   -2.2508  -25.3136   52.2881 H   0  0
   -4.6701  -23.5147   52.0592 H   0  0
   -4.2772  -24.7506   53.2955 H   0  0
   -5.9707  -27.6419   50.0746 H   0  0
   -5.8726  -30.0019   50.8774 H   0  0
   -3.6461  -30.2126   55.4922 H   0  0
   -6.9819  -31.0664   54.1876 H   0  0
   -5.5922  -32.2862   54.8751 H   0  0
   -5.0940  -32.9379   52.7113 H   0  0
   -6.4828  -31.7166   52.0235 H   0  0
   -4.9791  -28.6113   54.8553 H   0  0
   -5.0548  -26.2629   54.0533 H   0  0
   -6.0886  -24.4163   49.9957 H   0  0
   -5.3864  -25.9452   49.4195 H   0  0
   -3.9017  -24.3766   48.4615 H   0  0
   -4.0521  -23.2484   49.8112 H   0  0
  1  2  1  0
  2  3  1  0
  2  4  1  0
  4  5  2  0
  4  9  1  0
  5  6  1  0
  6  7  2  0
  7  8  1  0
  8  9  2  0
  9 10  1  0
 10 11  1  0
 10 20  1  0
 10 36  1  0
 11 12  2  0
 11 13  1  0
 13 14  1  0
 14 15  2  0
 14 19  1  0
 15 16  1  0
 16 17  2  0
 17 18  1  0
 18 19  2  0
 20 21  1  0
 21 22  1  0
 22 23  1  0
 22 35  1  0
 23 24  2  0
 23 34  1  0
 24 25  1  0
 25 26  2  0
 26 27  1  0
 26 33  1  0
 27 28  1  0
 27 31  1  0
 27 32  1  0
 28 29  2  0
 28 30  1  0
 31 32  1  0
 33 34  2  0
 35 36  1  0
  1 37  1  0
  1 38  1  0
  1 39  1  0
  2 40  1  0
  3 41  1  0
  3 42  1  0
  3 43  1  0
  5 44  1  0
  6 45  1  0
  7 46  1  0
  8 47  1  0
 13 48  1  0
 15 49  1  0
 17 50  1  0
 18 51  1  0
 20 52  1  0
 20 53  1  0
 21 54  1  0
 21 55  1  0
 24 56  1  0
 25 57  1  0
 30 58  1  0
 31 59  1  0
 31 60  1  0
 32 61  1  0
 32 62  1  0
 33 63  1  0
 34 64  1  0
 35 65  1  0
 35 66  1  0
 36 67  1  0
 36 68  1  0
M  END
> <Name>
Molecule

> <AbsoluteEnergy>
78.9866

> <Clean Energy>
198.799

> <ConfNumber>
95

> <MOL_NUMBER>
8

> <RelativeEnergy>
17.4376

> <POSE_NUMBER>
83

> <LibDockScore>
102.6937

> <HotSpots>
-2.93,-26.32,45.98,A,15,3
-1.93,-29.12,49.19,A,34,6
4.07,-23.72,49.78,A,37,17

$$$$
Molecule
  SciTegic05072616053D

 68 72  0  0  0  0            999 V2000
   -1.6354  -24.0957   52.8648 C   0  0  0  1  0  0
   -0.5158  -23.7830   51.8649 C   0  0  0  1  0  0
    0.8769  -24.1203   52.4351 C   0  0  0  1  0  0
   -0.6941  -24.1551   50.3906 C   0  0  0  1  0  0
    0.0903  -23.3550   49.5183 C   0  0  0  1  0  0
    0.0838  -23.5309   48.1345 C   0  0  0  1  0  0
   -0.7155  -24.5241   47.5750 C   0  0  0  1  0  0
   -1.4995  -25.3380   48.4015 C   0  0  0  1  0  0
   -1.5248  -25.1951   49.8174 C   0  0  0  1  0  0
   -2.4191  -26.1568   50.6367 C   0  0  0  1  0  0
   -1.5550  -26.8418   51.7108 C   0  0  0  1  0  0
   -0.3613  -26.6196   51.7261 O   0  0  0  1  0  0
   -2.1196  -27.7034   52.6424 N   0  0  0  1  0  0
   -1.6441  -27.9902   53.9162 C   0  0  0  1  0  0
   -2.2933  -28.9991   54.6732 C   0  0  0  1  0  0
   -1.8797  -29.3166   55.9331 N   0  0  0  1  0  0
   -0.8247  -28.6363   56.4673 C   0  0  0  1  0  0
   -0.1640  -27.6359   55.7262 C   0  0  0  1  0  0
   -0.5748  -27.3246   54.4636 N   0  0  0  1  0  0
   -2.9742  -27.3837   49.8179 C   0  0  0  1  0  0
   -4.0279  -28.2489   50.5591 C   0  0  0  1  0  0
   -5.1290  -27.4105   51.1194 N   0  0  0  1  0  0
   -6.1421  -27.9362   51.9198 C   0  0  0  1  0  0
   -6.1392  -29.2982   52.2947 C   0  0  0  1  0  0
   -7.1524  -29.8168   53.1233 C   0  0  0  1  0  0
   -8.1846  -28.9833   53.6042 C   0  0  0  1  0  0
   -9.2519  -29.5281   54.5420 C   0  0  0  1  0  0
  -10.4664  -30.1577   53.8482 C   0  0  0  1  0  0
  -10.4597  -30.2425   52.6426 O   0  0  0  1  0  0
  -11.5109  -30.6255   54.5489 O   0  0  0  1  0  0
   -8.7910  -30.2098   55.8240 C   0  0  0  1  0  0
   -9.4242  -28.8449   55.8953 C   0  0  0  1  0  0
   -8.2041  -27.6315   53.2156 C   0  0  0  1  0  0
   -7.1933  -27.1123   52.3837 C   0  0  0  1  0  0
   -5.0692  -25.9637   50.7811 C   0  0  0  1  0  0
   -3.6900  -25.3692   51.1462 C   0  0  0  1  0  0
   -1.4608  -23.5143   53.7701 H   0  0
   -1.5893  -25.1561   53.1128 H   0  0
   -2.6088  -23.8496   52.4405 H   0  0
   -0.6075  -22.7011   51.7693 H   0  0
    0.8982  -25.1805   52.6873 H   0  0
    1.0267  -23.5386   53.3447 H   0  0
    1.6553  -23.8900   51.7077 H   0  0
    0.7205  -22.5750   49.9456 H   0  0
    0.6992  -22.8963   47.4968 H   0  0
   -0.7309  -24.6679   46.4946 H   0  0
   -2.1149  -26.1117   47.9424 H   0  0
   -3.0196  -28.2010   52.3468 H   0  0
   -3.1397  -29.5312   54.2390 H   0  0
   -0.4892  -28.8689   57.4780 H   0  0
    0.6818  -27.1070   56.1656 H   0  0
   -2.1377  -28.0226   49.5347 H   0  0
   -3.4168  -27.0143   48.8928 H   0  0
   -4.4498  -28.9742   49.8634 H   0  0
   -3.5422  -28.7895   51.3714 H   0  0
   -5.3446  -29.9541   51.9389 H   0  0
   -7.1394  -30.8721   53.3959 H   0  0
  -11.8133  -29.8043   55.1292 H   0  0
   -7.7081  -30.1583   55.9368 H   0  0
   -9.4845  -30.9927   56.1310 H   0  0
  -10.4570  -28.8969   56.2398 H   0  0
   -8.6803  -28.0622   56.0440 H   0  0
   -9.0076  -26.9810   53.5610 H   0  0
   -7.2217  -26.0619   52.0938 H   0  0
   -5.8463  -25.4324   51.3306 H   0  0
   -5.2440  -25.8366   49.7127 H   0  0
   -3.6433  -24.3510   50.7598 H   0  0
   -3.6304  -25.2840   52.2312 H   0  0
  1  2  1  0
  2  3  1  0
  2  4  1  0
  4  5  2  0
  4  9  1  0
  5  6  1  0
  6  7  2  0
  7  8  1  0
  8  9  2  0
  9 10  1  0
 10 11  1  0
 10 20  1  0
 10 36  1  0
 11 12  2  0
 11 13  1  0
 13 14  1  0
 14 15  2  0
 14 19  1  0
 15 16  1  0
 16 17  2  0
 17 18  1  0
 18 19  2  0
 20 21  1  0
 21 22  1  0
 22 23  1  0
 22 35  1  0
 23 24  2  0
 23 34  1  0
 24 25  1  0
 25 26  2  0
 26 27  1  0
 26 33  1  0
 27 28  1  0
 27 31  1  0
 27 32  1  0
 28 29  2  0
 28 30  1  0
 31 32  1  0
 33 34  2  0
 35 36  1  0
  1 37  1  0
  1 38  1  0
  1 39  1  0
  2 40  1  0
  3 41  1  0
  3 42  1  0
  3 43  1  0
  5 44  1  0
  6 45  1  0
  7 46  1  0
  8 47  1  0
 13 48  1  0
 15 49  1  0
 17 50  1  0
 18 51  1  0
 20 52  1  0
 20 53  1  0
 21 54  1  0
 21 55  1  0
 24 56  1  0
 25 57  1  0
 30 58  1  0
 31 59  1  0
 31 60  1  0
 32 61  1  0
 32 62  1  0
 33 63  1  0
 34 64  1  0
 35 65  1  0
 35 66  1  0
 36 67  1  0
 36 68  1  0
M  END
> <Name>
Molecule

> <AbsoluteEnergy>
80.0828

> <Clean Energy>
198.799

> <ConfNumber>
103

> <MOL_NUMBER>
8

> <RelativeEnergy>
18.5338

> <POSE_NUMBER>
84

> <LibDockScore>
102.4815

> <HotSpots>
0.87,-24.32,52.78,A,63,3
-1.13,-28.72,56.59,P,69,16
-7.93,-28.32,52.38,A,59,33

$$$$
Molecule
  SciTegic05072616053D

 68 72  0  0  0  0            999 V2000
   -7.7126  -28.5016   56.7792 C   0  0  0  1  0  0
   -9.2024  -28.5718   56.4083 C   0  0  0  1  0  0
   -9.8251  -27.1970   56.1002 C   0  0  0  1  0  0
   -9.6675  -29.6886   55.4774 C   0  0  0  1  0  0
  -10.7817  -30.4115   55.9722 C   0  0  0  1  0  0
  -11.3539  -31.4777   55.2714 C   0  0  0  1  0  0
  -10.8235  -31.8517   54.0369 C   0  0  0  1  0  0
   -9.7291  -31.1572   53.5138 C   0  0  0  1  0  0
   -9.1161  -30.0648   54.1952 C   0  0  0  1  0  0
   -7.9132  -29.3718   53.5205 C   0  0  0  1  0  0
   -6.6084  -29.8042   54.2175 C   0  0  0  1  0  0
   -6.6405  -30.7585   54.9636 O   0  0  0  1  0  0
   -5.4127  -29.1319   53.9950 N   0  0  0  1  0  0
   -4.1968  -29.3222   54.6353 C   0  0  0  1  0  0
   -3.0598  -28.6237   54.1485 C   0  0  0  1  0  0
   -1.8306  -28.7869   54.7134 N   0  0  0  1  0  0
   -1.7101  -29.6196   55.7851 C   0  0  0  1  0  0
   -2.8306  -30.3142   56.2871 C   0  0  0  1  0  0
   -4.0592  -30.1633   55.7082 N   0  0  0  1  0  0
   -8.1948  -27.8226   53.4175 C   0  0  0  1  0  0
   -7.8322  -27.1563   52.0677 C   0  0  0  1  0  0
   -6.5154  -27.6552   51.5916 N   0  0  0  1  0  0
   -5.3533  -26.8774   51.5255 C   0  0  0  1  0  0
   -4.1063  -27.4684   51.2023 C   0  0  0  1  0  0
   -2.9236  -26.7121   51.1988 C   0  0  0  1  0  0
   -2.9585  -25.3361   51.4780 C   0  0  0  1  0  0
   -1.6814  -24.5237   51.4571 C   0  0  0  1  0  0
   -0.6588  -24.9060   52.5336 C   0  0  0  1  0  0
   -0.1703  -24.0232   53.2106 O   0  0  0  1  0  0
   -0.3018  -26.1836   52.7217 O   0  0  0  1  0  0
   -1.7945  -23.0606   51.0460 C   0  0  0  1  0  0
   -1.1303  -24.0478   50.1182 C   0  0  0  1  0  0
   -4.1895  -24.7267   51.7818 C   0  0  0  1  0  0
   -5.3706  -25.4885   51.8092 C   0  0  0  1  0  0
   -6.5230  -29.1169   51.2872 C   0  0  0  1  0  0
   -7.6660  -29.8512   52.0383 C   0  0  0  1  0  0
   -7.6183  -27.8529   57.6501 H   0  0
   -7.1851  -28.0388   55.9451 H   0  0
   -7.3092  -29.4921   56.9897 H   0  0
   -9.6334  -28.9137   57.3493 H   0  0
   -9.2629  -26.7556   55.2773 H   0  0
   -9.6961  -26.5698   56.9823 H   0  0
  -10.8801  -27.2885   55.8421 H   0  0
  -11.2080  -30.1260   56.9339 H   0  0
  -12.2080  -32.0125   55.6868 H   0  0
  -11.2606  -32.6821   53.4824 H   0  0
   -9.3285  -31.4626   52.5472 H   0  0
   -5.4322  -28.3758   53.2381 H   0  0
   -3.1730  -27.9426   53.3051 H   0  0
   -0.7376  -29.7504   56.2596 H   0  0
   -2.7154  -30.9773   57.1445 H   0  0
   -9.2526  -27.6486   53.6147 H   0  0
   -7.6450  -27.3158   54.2106 H   0  0
   -8.5975  -27.3946   51.3290 H   0  0
   -7.7832  -26.0752   52.1979 H   0  0
   -4.0649  -28.5285   50.9521 H   0  0
   -1.9721  -27.1959   50.9780 H   0  0
    0.0344  -26.4983   51.7781 H   0  0
   -1.0632  -22.4418   51.5660 H   0  0
   -2.8045  -22.8155   50.7173 H   0  0
   -1.7854  -24.3292   49.2938 H   0  0
   -0.0444  -23.9567   50.1435 H   0  0
   -4.2277  -23.6588   51.9970 H   0  0
   -6.3157  -25.0031   52.0527 H   0  0
   -6.6516  -29.2581   50.2141 H   0  0
   -5.5666  -29.5494   51.5810 H   0  0
   -7.4445  -30.9184   52.0494 H   0  0
   -8.5890  -29.7268   51.4721 H   0  0
  1  2  1  0
  2  3  1  0
  2  4  1  0
  4  5  2  0
  4  9  1  0
  5  6  1  0
  6  7  2  0
  7  8  1  0
  8  9  2  0
  9 10  1  0
 10 11  1  0
 10 20  1  0
 10 36  1  0
 11 12  2  0
 11 13  1  0
 13 14  1  0
 14 15  2  0
 14 19  1  0
 15 16  1  0
 16 17  2  0
 17 18  1  0
 18 19  2  0
 20 21  1  0
 21 22  1  0
 22 23  1  0
 22 35  1  0
 23 24  2  0
 23 34  1  0
 24 25  1  0
 25 26  2  0
 26 27  1  0
 26 33  1  0
 27 28  1  0
 27 31  1  0
 27 32  1  0
 28 29  2  0
 28 30  1  0
 31 32  1  0
 33 34  2  0
 35 36  1  0
  1 37  1  0
  1 38  1  0
  1 39  1  0
  2 40  1  0
  3 41  1  0
  3 42  1  0
  3 43  1  0
  5 44  1  0
  6 45  1  0
  7 46  1  0
  8 47  1  0
 13 48  1  0
 15 49  1  0
 17 50  1  0
 18 51  1  0
 20 52  1  0
 20 53  1  0
 21 54  1  0
 21 55  1  0
 24 56  1  0
 25 57  1  0
 30 58  1  0
 31 59  1  0
 31 60  1  0
 32 61  1  0
 32 62  1  0
 33 63  1  0
 34 64  1  0
 35 65  1  0
 35 66  1  0
 36 67  1  0
 36 68  1  0
M  END
> <Name>
Molecule

> <AbsoluteEnergy>
78.5316

> <Clean Energy>
198.799

> <ConfNumber>
92

> <MOL_NUMBER>
8

> <RelativeEnergy>
16.9826

> <POSE_NUMBER>
85

> <LibDockScore>
102.4103

> <HotSpots>
-11.53,-32.52,54.78,A,71,7
-2.33,-30.12,55.19,P,60,16
-7.93,-28.32,52.38,A,59,21

$$$$
Molecule
  SciTegic05072616053D

 68 72  0  0  0  0            999 V2000
   -7.8241  -26.9968   52.5390 C   0  0  0  1  0  0
   -7.7164  -28.3152   53.3313 C   0  0  0  1  0  0
   -9.0618  -28.5950   54.0426 C   0  0  0  1  0  0
   -7.1940  -29.4355   52.4525 C   0  0  0  1  0  0
   -8.0566  -30.5404   52.2363 C   0  0  0  1  0  0
   -7.6909  -31.6154   51.4187 C   0  0  0  1  0  0
   -6.4515  -31.6079   50.7817 C   0  0  0  1  0  0
   -5.5809  -30.5318   50.9739 C   0  0  0  1  0  0
   -5.9009  -29.4359   51.8175 C   0  0  0  1  0  0
   -4.7973  -28.3619   51.9102 C   0  0  0  1  0  0
   -3.4211  -29.0308   52.1221 C   0  0  0  1  0  0
   -2.5730  -28.9345   51.2617 O   0  0  0  1  0  0
   -3.1665  -29.7265   53.3005 N   0  0  0  1  0  0
   -2.3546  -29.3268   54.3583 C   0  0  0  1  0  0
   -2.5044  -29.9651   55.6179 C   0  0  0  1  0  0
   -1.7397  -29.6108   56.6918 N   0  0  0  1  0  0
   -0.8174  -28.6199   56.5374 C   0  0  0  1  0  0
   -0.6507  -27.9788   55.2943 C   0  0  0  1  0  0
   -1.4164  -28.3351   54.2214 N   0  0  0  1  0  0
   -4.8272  -27.5556   50.5630 C   0  0  0  1  0  0
   -4.3475  -26.0875   50.6423 C   0  0  0  1  0  0
   -3.2839  -25.9148   51.6665 N   0  0  0  1  0  0
   -2.0346  -25.4041   51.3396 C   0  0  0  1  0  0
   -1.6397  -25.2878   49.9867 C   0  0  0  1  0  0
   -0.3696  -24.7897   49.6534 C   0  0  0  1  0  0
    0.5272  -24.4036   50.6646 C   0  0  0  1  0  0
    1.9008  -23.8850   50.3013 C   0  0  0  1  0  0
    3.0309  -24.7913   50.7801 C   0  0  0  1  0  0
    2.8124  -25.5833   51.6704 O   0  0  0  1  0  0
    4.2322  -24.6928   50.2076 O   0  0  0  1  0  0
    2.0658  -23.1427   48.9827 C   0  0  0  1  0  0
    2.1572  -22.3858   50.2854 C   0  0  0  1  0  0
    0.1392  -24.5094   52.0139 C   0  0  0  1  0  0
   -1.1319  -25.0023   52.3495 C   0  0  0  1  0  0
   -3.6362  -26.3493   53.0516 C   0  0  0  1  0  0
   -4.8565  -27.3045   53.0577 C   0  0  0  1  0  0
   -8.0506  -26.1774   53.2211 H   0  0
   -8.6166  -27.0804   51.7953 H   0  0
   -6.8774  -26.7973   52.0369 H   0  0
   -6.9723  -28.2346   54.1238 H   0  0
   -9.8565  -28.6814   53.3016 H   0  0
   -9.2905  -27.7784   54.7274 H   0  0
   -8.9883  -29.5267   54.6036 H   0  0
   -9.0328  -30.5525   52.7211 H   0  0
   -8.3723  -32.4549   51.2807 H   0  0
   -6.1625  -32.4375   50.1365 H   0  0
   -4.6211  -30.5340   50.4572 H   0  0
   -3.6493  -30.6756   53.4051 H   0  0
   -3.2465  -30.7556   55.7298 H   0  0
   -0.2017  -28.3199   57.3853 H   0  0
    0.0958  -27.1917   55.1880 H   0  0
   -5.8457  -27.5649   50.1749 H   0  0
   -4.2127  -28.0802   49.8314 H   0  0
   -5.1924  -25.4463   50.8936 H   0  0
   -3.9595  -25.7841   49.6699 H   0  0
   -2.3271  -25.5874   49.1956 H   0  0
   -0.0782  -24.7022   48.6067 H   0  0
    4.5064  -23.6858   50.3233 H   0  0
    1.1062  -22.9829   48.4910 H   0  0
    3.0502  -23.3156   48.5477 H   0  0
    3.1903  -22.1538   50.5442 H   0  0
    1.2463  -21.8225   50.4884 H   0  0
    0.8290  -24.2072   52.8018 H   0  0
   -1.4245  -25.0755   53.3969 H   0  0
   -3.8665  -25.4713   53.6551 H   0  0
   -2.7808  -26.8590   53.4949 H   0  0
   -4.8975  -27.8210   54.0167 H   0  0
   -5.7680  -26.7161   52.9523 H   0  0
  1  2  1  0
  2  3  1  0
  2  4  1  0
  4  5  2  0
  4  9  1  0
  5  6  1  0
  6  7  2  0
  7  8  1  0
  8  9  2  0
  9 10  1  0
 10 11  1  0
 10 20  1  0
 10 36  1  0
 11 12  2  0
 11 13  1  0
 13 14  1  0
 14 15  2  0
 14 19  1  0
 15 16  1  0
 16 17  2  0
 17 18  1  0
 18 19  2  0
 20 21  1  0
 21 22  1  0
 22 23  1  0
 22 35  1  0
 23 24  2  0
 23 34  1  0
 24 25  1  0
 25 26  2  0
 26 27  1  0
 26 33  1  0
 27 28  1  0
 27 31  1  0
 27 32  1  0
 28 29  2  0
 28 30  1  0
 31 32  1  0
 33 34  2  0
 35 36  1  0
  1 37  1  0
  1 38  1  0
  1 39  1  0
  2 40  1  0
  3 41  1  0
  3 42  1  0
  3 43  1  0
  5 44  1  0
  6 45  1  0
  7 46  1  0
  8 47  1  0
 13 48  1  0
 15 49  1  0
 17 50  1  0
 18 51  1  0
 20 52  1  0
 20 53  1  0
 21 54  1  0
 21 55  1  0
 24 56  1  0
 25 57  1  0
 30 58  1  0
 31 59  1  0
 31 60  1  0
 32 61  1  0
 32 62  1  0
 33 63  1  0
 34 64  1  0
 35 65  1  0
 35 66  1  0
 36 67  1  0
 36 68  1  0
M  END
> <Name>
Molecule

> <AbsoluteEnergy>
73.4378

> <Clean Energy>
198.799

> <ConfNumber>
53

> <MOL_NUMBER>
8

> <RelativeEnergy>
11.8888

> <POSE_NUMBER>
86

> <LibDockScore>
101.9242

> <HotSpots>
-8.73,-28.12,54.38,A,70,3
-1.53,-28.72,56.38,A,78,15
2.67,-22.92,49.98,A,39,32

$$$$
Molecule
  SciTegic05072616053D

 68 72  0  0  0  0            999 V2000
   -1.8169  -28.2704   54.0810 C   0  0  0  1  0  0
   -2.2274  -26.8662   53.5977 C   0  0  0  1  0  0
   -1.3923  -25.7699   54.2857 C   0  0  0  1  0  0
   -2.2126  -26.7660   52.0889 C   0  0  0  1  0  0
   -1.0320  -26.2643   51.4936 C   0  0  0  1  0  0
   -0.9254  -26.1066   50.1074 C   0  0  0  1  0  0
   -2.0029  -26.4536   49.2880 C   0  0  0  1  0  0
   -3.1789  -26.9666   49.8558 C   0  0  0  1  0  0
   -3.3165  -27.1534   51.2585 C   0  0  0  1  0  0
   -4.6120  -27.7547   51.8324 C   0  0  0  1  0  0
   -4.3306  -29.1369   52.4491 C   0  0  0  1  0  0
   -3.7168  -29.9450   51.7852 O   0  0  0  1  0  0
   -4.7887  -29.4641   53.7175 N   0  0  0  1  0  0
   -4.6809  -30.6880   54.3609 C   0  0  0  1  0  0
   -4.8335  -30.7449   55.7694 C   0  0  0  1  0  0
   -4.8984  -31.9413   56.4208 N   0  0  0  1  0  0
   -4.7502  -33.0879   55.7019 C   0  0  0  1  0  0
   -4.5437  -33.0426   54.3101 C   0  0  0  1  0  0
   -4.4921  -31.8483   53.6567 N   0  0  0  1  0  0
   -5.6895  -28.0927   50.7501 C   0  0  0  1  0  0
   -6.9324  -28.8256   51.3229 C   0  0  0  1  0  0
   -7.3590  -28.2755   52.6474 N   0  0  0  1  0  0
   -8.1374  -29.0078   53.5518 C   0  0  0  1  0  0
   -8.7386  -30.2321   53.1780 C   0  0  0  1  0  0
   -9.4398  -31.0116   54.1125 C   0  0  0  1  0  0
   -9.6061  -30.5648   55.4378 C   0  0  0  1  0  0
  -10.3454  -31.4204   56.4593 C   0  0  0  1  0  0
  -11.8486  -31.6267   56.2018 C   0  0  0  1  0  0
  -12.6147  -31.7347   57.1414 O   0  0  0  1  0  0
  -12.3205  -31.7032   54.9516 O   0  0  0  1  0  0
   -9.8716  -31.3169   57.9038 C   0  0  0  1  0  0
   -9.5978  -32.5737   57.1176 C   0  0  0  1  0  0
   -9.0636  -29.3185   55.8074 C   0  0  0  1  0  0
   -8.3350  -28.5498   54.8755 C   0  0  0  1  0  0
   -6.8751  -26.8972   52.9627 C   0  0  0  1  0  0
   -5.3410  -26.7046   52.7507 C   0  0  0  1  0  0
   -1.9621  -28.3246   55.1599 H   0  0
   -0.7610  -28.4219   53.8570 H   0  0
   -2.4173  -29.0327   53.5844 H   0  0
   -3.2616  -26.6976   53.8977 H   0  0
   -0.3395  -25.9398   54.0602 H   0  0
   -1.5407  -25.8425   55.3631 H   0  0
   -1.6958  -24.7844   53.9323 H   0  0
   -0.1875  -25.9948   52.1278 H   0  0
   -0.0072  -25.7154   49.6692 H   0  0
   -1.9298  -26.3257   48.2080 H   0  0
   -4.0110  -27.2295   49.2027 H   0  0
   -5.2806  -28.6842   54.2604 H   0  0
   -4.8999  -29.8186   56.3401 H   0  0
   -4.7919  -34.0516   56.2095 H   0  0
   -4.4241  -33.9705   53.7508 H   0  0
   -5.2354  -28.7178   49.9813 H   0  0
   -6.0144  -27.1676   50.2740 H   0  0
   -7.7580  -28.7319   50.6174 H   0  0
   -6.7017  -29.8848   51.4367 H   0  0
   -8.6564  -30.5766   52.1471 H   0  0
   -9.8591  -31.9710   53.8094 H   0  0
  -11.7699  -32.4822   54.5129 H   0  0
  -10.6952  -31.4516   58.6050 H   0  0
   -8.9823  -30.6923   57.9880 H   0  0
   -8.5618  -32.6215   56.7821 H   0  0
  -10.2756  -33.3801   57.3977 H   0  0
   -9.2079  -28.9451   56.8213 H   0  0
   -7.9185  -27.5895   55.1797 H   0  0
   -7.1188  -26.6671   53.9999 H   0  0
   -7.4098  -26.1850   52.3342 H   0  0
   -5.1751  -25.7103   52.3360 H   0  0
   -4.8574  -26.7079   53.7275 H   0  0
  1  2  1  0
  2  3  1  0
  2  4  1  0
  4  5  2  0
  4  9  1  0
  5  6  1  0
  6  7  2  0
  7  8  1  0
  8  9  2  0
  9 10  1  0
 10 11  1  0
 10 20  1  0
 10 36  1  0
 11 12  2  0
 11 13  1  0
 13 14  1  0
 14 15  2  0
 14 19  1  0
 15 16  1  0
 16 17  2  0
 17 18  1  0
 18 19  2  0
 20 21  1  0
 21 22  1  0
 22 23  1  0
 22 35  1  0
 23 24  2  0
 23 34  1  0
 24 25  1  0
 25 26  2  0
 26 27  1  0
 26 33  1  0
 27 28  1  0
 27 31  1  0
 27 32  1  0
 28 29  2  0
 28 30  1  0
 31 32  1  0
 33 34  2  0
 35 36  1  0
  1 37  1  0
  1 38  1  0
  1 39  1  0
  2 40  1  0
  3 41  1  0
  3 42  1  0
  3 43  1  0
  5 44  1  0
  6 45  1  0
  7 46  1  0
  8 47  1  0
 13 48  1  0
 15 49  1  0
 17 50  1  0
 18 51  1  0
 20 52  1  0
 20 53  1  0
 21 54  1  0
 21 55  1  0
 24 56  1  0
 25 57  1  0
 30 58  1  0
 31 59  1  0
 31 60  1  0
 32 61  1  0
 32 62  1  0
 33 63  1  0
 34 64  1  0
 35 65  1  0
 35 66  1  0
 36 67  1  0
 36 68  1  0
M  END
> <Name>
Molecule

> <AbsoluteEnergy>
72.8261

> <Clean Energy>
198.799

> <ConfNumber>
46

> <MOL_NUMBER>
8

> <RelativeEnergy>
11.2771

> <POSE_NUMBER>
87

> <LibDockScore>
100.4687

> <HotSpots>
-0.93,-28.12,54.98,A,74,1
-0.33,-25.52,53.19,A,64,5
-8.73,-28.12,54.38,A,70,34

$$$$
Molecule
  SciTegic05072616053D

 68 72  0  0  0  0            999 V2000
    1.1670  -25.7272   53.0722 C   0  0  0  1  0  0
    0.5029  -24.4063   52.6372 C   0  0  0  1  0  0
    0.6990  -23.3028   53.6970 C   0  0  0  1  0  0
    0.9554  -23.9842   51.2567 C   0  0  0  1  0  0
    2.3508  -23.8738   51.0684 C   0  0  0  1  0  0
    2.8923  -23.4488   49.8519 C   0  0  0  1  0  0
    2.0427  -23.1335   48.7918 C   0  0  0  1  0  0
    0.6560  -23.2606   48.9433 C   0  0  0  1  0  0
    0.0706  -23.7029   50.1608 C   0  0  0  1  0  0
   -1.4551  -23.8669   50.2504 C   0  0  0  1  0  0
   -1.8221  -25.3159   50.6169 C   0  0  0  1  0  0
   -2.2307  -25.5565   51.7332 O   0  0  0  1  0  0
   -1.7266  -26.3307   49.6754 N   0  0  0  1  0  0
   -1.5891  -27.6913   49.9389 C   0  0  0  1  0  0
   -1.0309  -28.5288   48.9423 C   0  0  0  1  0  0
   -0.8999  -29.8732   49.1343 N   0  0  0  1  0  0
   -1.3250  -30.4091   50.3139 C   0  0  0  1  0  0
   -1.8822  -29.5922   51.3158 C   0  0  0  1  0  0
   -1.9999  -28.2488   51.1251 N   0  0  0  1  0  0
   -2.0631  -22.8415   51.2726 C   0  0  0  1  0  0
   -3.6216  -22.7544   51.2933 C   0  0  0  1  0  0
   -4.2328  -23.7551   50.3702 N   0  0  0  1  0  0
   -5.0501  -24.7942   50.8196 C   0  0  0  1  0  0
   -6.1124  -24.5544   51.7212 C   0  0  0  1  0  0
   -6.8255  -25.6249   52.2870 C   0  0  0  1  0  0
   -6.5009  -26.9512   51.9448 C   0  0  0  1  0  0
   -7.1863  -28.1113   52.6224 C   0  0  0  1  0  0
   -6.1829  -29.1263   53.1529 C   0  0  0  1  0  0
   -5.8335  -30.0427   52.4458 O   0  0  0  1  0  0
   -5.7061  -28.9731   54.3880 O   0  0  0  1  0  0
   -8.4711  -27.8888   53.4022 C   0  0  0  1  0  0
   -8.5170  -28.6023   52.0735 C   0  0  0  1  0  0
   -5.5130  -27.1964   50.9792 C   0  0  0  1  0  0
   -4.8026  -26.1285   50.4151 C   0  0  0  1  0  0
   -3.7567  -23.6251   48.9657 C   0  0  0  1  0  0
   -2.2105  -23.5069   48.9145 C   0  0  0  1  0  0
    0.7250  -26.0456   54.0163 H   0  0
    2.2321  -25.5498   53.2211 H   0  0
    1.0186  -26.4945   52.3124 H   0  0
   -0.5711  -24.5783   52.5660 H   0  0
    1.7676  -23.1435   53.8413 H   0  0
    0.2605  -23.6393   54.6364 H   0  0
    0.2235  -22.3771   53.3730 H   0  0
    3.0207  -24.1258   51.8905 H   0  0
    3.9724  -23.3643   49.7325 H   0  0
    2.4579  -22.7880   47.8450 H   0  0
    0.0070  -23.0132   48.1033 H   0  0
   -1.7621  -26.0394   48.6464 H   0  0
   -0.6988  -28.0897   48.0016 H   0  0
   -1.2323  -31.4819   50.4829 H   0  0
   -2.2218  -30.0379   52.2507 H   0  0
   -1.6640  -21.8515   51.0521 H   0  0
   -1.7174  -23.1018   52.2730 H   0  0
   -3.9305  -21.7537   50.9911 H   0  0
   -3.9782  -22.9380   52.3068 H   0  0
   -6.3806  -23.5300   51.9797 H   0  0
   -7.6323  -25.4277   52.9929 H   0  0
   -6.5527  -28.9480   55.0085 H   0  0
   -8.8175  -26.8587   53.3178 H   0  0
   -8.5583  -28.5852   54.2362 H   0  0
   -8.6285  -29.6793   52.1988 H   0  0
   -8.8861  -27.9523   51.2801 H   0  0
   -5.2979  -28.2185   50.6676 H   0  0
   -4.0484  -26.3277   49.6538 H   0  0
   -4.2000  -22.7370   48.5154 H   0  0
   -4.0693  -24.5012   48.3975 H   0  0
   -1.8404  -24.1543   48.1195 H   0  0
   -1.9507  -22.4866   48.6324 H   0  0
  1  2  1  0
  2  3  1  0
  2  4  1  0
  4  5  2  0
  4  9  1  0
  5  6  1  0
  6  7  2  0
  7  8  1  0
  8  9  2  0
  9 10  1  0
 10 11  1  0
 10 20  1  0
 10 36  1  0
 11 12  2  0
 11 13  1  0
 13 14  1  0
 14 15  2  0
 14 19  1  0
 15 16  1  0
 16 17  2  0
 17 18  1  0
 18 19  2  0
 20 21  1  0
 21 22  1  0
 22 23  1  0
 22 35  1  0
 23 24  2  0
 23 34  1  0
 24 25  1  0
 25 26  2  0
 26 27  1  0
 26 33  1  0
 27 28  1  0
 27 31  1  0
 27 32  1  0
 28 29  2  0
 28 30  1  0
 31 32  1  0
 33 34  2  0
 35 36  1  0
  1 37  1  0
  1 38  1  0
  1 39  1  0
  2 40  1  0
  3 41  1  0
  3 42  1  0
  3 43  1  0
  5 44  1  0
  6 45  1  0
  7 46  1  0
  8 47  1  0
 13 48  1  0
 15 49  1  0
 17 50  1  0
 18 51  1  0
 20 52  1  0
 20 53  1  0
 21 54  1  0
 21 55  1  0
 24 56  1  0
 25 57  1  0
 30 58  1  0
 31 59  1  0
 31 60  1  0
 32 61  1  0
 32 62  1  0
 33 63  1  0
 34 64  1  0
 35 65  1  0
 35 66  1  0
 36 67  1  0
 36 68  1  0
M  END
> <Name>
Molecule

> <AbsoluteEnergy>
70.1864

> <Clean Energy>
198.799

> <ConfNumber>
27

> <MOL_NUMBER>
8

> <RelativeEnergy>
8.63738

> <POSE_NUMBER>
88

> <LibDockScore>
96.0275

> <HotSpots>
0.47,-23.32,53.78,A,67,3
2.67,-22.92,49.98,A,39,6
-5.93,-24.72,51.19,A,53,24

$$$$
Molecule
  SciTegic05072616053D

 68 72  0  0  0  0            999 V2000
  -12.9369  -22.9044   63.5695 C   0  0  0  1  0  0
  -12.7413  -22.1237   62.2569 C   0  0  0  1  0  0
  -13.3614  -20.7140   62.4103 C   0  0  0  1  0  0
  -13.2194  -22.9279   61.0572 C   0  0  0  1  0  0
  -14.6137  -22.8838   60.7988 C   0  0  0  1  0  0
  -15.1946  -23.5850   59.7394 C   0  0  0  1  0  0
  -14.3931  -24.3659   58.9100 C   0  0  0  1  0  0
  -13.0164  -24.4366   59.1424 C   0  0  0  1  0  0
  -12.3732  -23.7272   60.1936 C   0  0  0  1  0  0
  -10.8389  -23.9207   60.3055 C   0  0  0  1  0  0
  -10.0686  -22.6439   60.6875 C   0  0  0  1  0  0
  -10.3510  -21.6254   60.0913 O   0  0  0  1  0  0
   -9.0809  -22.6029   61.6702 N   0  0  0  1  0  0
   -8.1449  -21.5850   61.7993 C   0  0  0  1  0  0
   -7.7046  -21.1563   63.0808 C   0  0  0  1  0  0
   -6.7730  -20.1632   63.2112 N   0  0  0  1  0  0
   -6.2729  -19.5837   62.0820 C   0  0  0  1  0  0
   -6.7048  -19.9981   60.8067 C   0  0  0  1  0  0
   -7.6308  -20.9890   60.6773 N   0  0  0  1  0  0
  -10.1804  -24.3111   58.9083 C   0  0  0  1  0  0
   -9.3694  -25.6207   58.8844 C   0  0  0  1  0  0
  -10.1455  -26.7678   59.4294 N   0  0  0  1  0  0
  -10.2073  -27.9955   58.7660 C   0  0  0  1  0  0
  -10.8476  -29.1149   59.3500 C   0  0  0  1  0  0
  -10.9387  -30.3351   58.6572 C   0  0  0  1  0  0
  -10.3832  -30.4678   57.3717 C   0  0  0  1  0  0
  -10.5032  -31.7729   56.6133 C   0  0  0  1  0  0
  -11.6445  -31.7793   55.5971 C   0  0  0  1  0  0
  -11.3880  -31.9185   54.4218 O   0  0  0  1  0  0
  -12.9042  -31.6356   56.0137 O   0  0  0  1  0  0
   -9.2229  -32.5276   56.2855 C   0  0  0  1  0  0
  -10.1786  -33.0866   57.3107 C   0  0  0  1  0  0
   -9.7205  -29.3735   56.7917 C   0  0  0  1  0  0
   -9.6319  -28.1527   57.4813 C   0  0  0  1  0  0
  -10.8481  -26.5220   60.7247 C   0  0  0  1  0  0
  -10.5590  -25.1080   61.2903 C   0  0  0  1  0  0
  -14.0010  -22.9985   63.7863 H   0  0
  -12.4435  -22.3788   64.3870 H   0  0
  -12.5016  -23.8984   63.4663 H   0  0
  -11.6823  -21.9667   62.0518 H   0  0
  -12.8691  -20.1824   63.2246 H   0  0
  -14.4266  -20.8021   62.6239 H   0  0
  -13.2254  -20.1572   61.4831 H   0  0
  -15.2519  -22.2838   61.4475 H   0  0
  -16.2683  -23.5214   59.5629 H   0  0
  -14.8375  -24.9197   58.0830 H   0  0
  -12.4093  -25.0631   58.4890 H   0  0
   -9.0412  -23.4096   62.3720 H   0  0
   -8.1159  -21.6264   63.9741 H   0  0
   -5.5302  -18.7905   62.1675 H   0  0
   -6.2947  -19.5220   59.9161 H   0  0
   -9.5283  -23.4971   58.5916 H   0  0
  -10.9701  -24.3819   58.1604 H   0  0
   -8.4630  -25.4916   59.4758 H   0  0
   -9.0798  -25.8430   57.8573 H   0  0
  -11.2752  -29.0299   60.3490 H   0  0
  -11.4431  -31.1837   59.1193 H   0  0
  -12.9063  -30.7332   56.5506 H   0  0
   -8.3546  -32.0650   56.7548 H   0  0
   -9.3014  -33.0525   55.3335 H   0  0
  -10.7667  -33.9102   56.9058 H   0  0
   -9.8209  -32.9213   58.3270 H   0  0
   -9.2732  -29.4719   55.8026 H   0  0
   -9.1120  -27.3129   57.0202 H   0  0
  -10.5278  -27.2684   61.4516 H   0  0
  -11.9219  -26.6324   60.5736 H   0  0
  -11.1589  -24.9649   62.1890 H   0  0
   -9.5147  -25.0650   61.5995 H   0  0
  1  2  1  0
  2  3  1  0
  2  4  1  0
  4  5  2  0
  4  9  1  0
  5  6  1  0
  6  7  2  0
  7  8  1  0
  8  9  2  0
  9 10  1  0
 10 11  1  0
 10 20  1  0
 10 36  1  0
 11 12  2  0
 11 13  1  0
 13 14  1  0
 14 15  2  0
 14 19  1  0
 15 16  1  0
 16 17  2  0
 17 18  1  0
 18 19  2  0
 20 21  1  0
 21 22  1  0
 22 23  1  0
 22 35  1  0
 23 24  2  0
 23 34  1  0
 24 25  1  0
 25 26  2  0
 26 27  1  0
 26 33  1  0
 27 28  1  0
 27 31  1  0
 27 32  1  0
 28 29  2  0
 28 30  1  0
 31 32  1  0
 33 34  2  0
 35 36  1  0
  1 37  1  0
  1 38  1  0
  1 39  1  0
  2 40  1  0
  3 41  1  0
  3 42  1  0
  3 43  1  0
  5 44  1  0
  6 45  1  0
  7 46  1  0
  8 47  1  0
 13 48  1  0
 15 49  1  0
 17 50  1  0
 18 51  1  0
 20 52  1  0
 20 53  1  0
 21 54  1  0
 21 55  1  0
 24 56  1  0
 25 57  1  0
 30 58  1  0
 31 59  1  0
 31 60  1  0
 32 61  1  0
 32 62  1  0
 33 63  1  0
 34 64  1  0
 35 65  1  0
 35 66  1  0
 36 67  1  0
 36 68  1  0
M  END
> <Name>
Molecule

> <AbsoluteEnergy>
80.948

> <Clean Energy>
198.799

> <ConfNumber>
110

> <MOL_NUMBER>
8

> <RelativeEnergy>
19.399

> <POSE_NUMBER>
89

> <LibDockScore>
95.5413

> <HotSpots>
-6.93,-20.92,60.98,A,90,17
-12.13,-33.92,53.59,P,45,29
-13.33,-32.52,54.59,P,52,30

$$$$
