MPDR0008_model_Modified
  DSViewer          3D                             0

 77 81  0  0  0  0  0  0  0  0999 V2000
   -1.8425  -24.1893   49.3894 C   0  0
   -1.1080  -23.3207   48.9793 O   0  0
   -3.1074  -24.3165   48.8868 N   0  0
   -1.3876  -25.1486   50.4614 C   0  0
   -2.2498  -24.9426   51.7300 C   0  0
   -1.9760  -25.9817   52.8348 C   0  0
   -2.0165  -27.3701   52.3051 N   0  0
   -1.2946  -27.6655   51.0400 C   0  0
   -1.5778  -26.5998   49.9626 C   0  0
    0.0500  -24.8778   50.7540 C   0  0
    1.0414  -25.1142   49.7784 C   0  0
    2.3910  -24.8513   50.0735 C   0  0
    2.7539  -24.3555   51.3369 C   0  0
    1.7658  -24.1198   52.3093 C   0  0
    0.4173  -24.3805   52.0172 C   0  0
    0.6752  -25.6387   48.4355 C   0  0
    1.1346  -24.7019   47.3186 C   0  0
    1.1635  -27.0747   48.2403 C   0  0
   -2.6963  -28.3572   52.9711 C   0  0
   -2.8420  -28.2921   54.3709 C   0  0
   -3.5392  -29.3048   55.0533 C   0  0
   -4.0916  -30.3830   54.3405 C   0  0
   -3.9469  -30.4492   52.9431 C   0  0
   -3.2498  -29.4373   52.2586 C   0  0
   -4.8369  -31.4622   55.0689 C   0  0
   -6.3409  -31.5572   54.9027 C   0  0
   -5.7574  -31.0774   56.2129 C   0  0
   -4.0357  -32.7450   55.1853 C   0  0
   -3.3207  -32.9600   56.1350 O   0  0
   -4.1900  -33.5887   54.1684 O   0  0
   -3.5157  -23.5216   47.8488 C   0  0
   -3.0662  -22.1870   47.7801 C   0  0
   -3.4759  -21.3586   46.7236 C   0  0
   -4.3348  -21.8559   45.7309 C   0  0
   -4.7675  -20.9781   44.6124 C   0  0
   -4.7862  -23.1853   45.7976 C   0  0
   -4.3801  -24.0222   46.8513 C   0  0
   -4.8167  -25.2679   46.8908 O   0  0
   -5.5695  -25.7461   45.7856 C   0  0
   -3.7788  -25.0374   49.3045 H   0  0
   -2.0590  -23.9462   52.1286 H   0  0
   -3.3031  -24.9916   51.4540 H   0  0
   -2.7253  -25.8775   53.6195 H   0  0
   -0.9936  -25.7936   53.2679 H   0  0
   -1.6070  -28.6414   50.6683 H   0  0
   -0.2233  -27.6975   51.2386 H   0  0
   -0.9149  -26.7721   49.1147 H   0  0
   -2.6020  -26.7200   49.6094 H   0  0
    3.1575  -25.0327   49.3200 H   0  0
    3.8008  -24.1536   51.5633 H   0  0
    2.0466  -23.7348   53.2896 H   0  0
   -0.3473  -24.1968   52.7720 H   0  0
   -0.4129  -25.6720   48.3797 H   0  0
    2.2169  -24.5898   47.3833 H   0  0
    0.6684  -23.7282   47.4691 H   0  0
    0.8565  -25.1047   46.3447 H   0  0
    0.7156  -27.7020   49.0110 H   0  0
    2.2473  -27.0920   48.3550 H   0  0
    0.8855  -27.4398   47.2516 H   0  0
   -2.4142  -27.4566   54.9250 H   0  0
   -3.6514  -29.2536   56.1363 H   0  0
   -4.3752  -31.2852   52.3902 H   0  0
   -3.1382  -29.4897   51.1756 H   0  0
   -6.6880  -32.5882   54.9717 H   0  0
   -6.7316  -30.7298   54.3104 H   0  0
   -5.8382  -29.9953   56.3158 H   0  0
   -5.7930  -31.8543   56.9767 H   0  0
   -3.9134  -33.0753   53.2952 H   0  0
   -2.3990  -21.7976   48.5491 H   0  0
   -3.1265  -20.3273   46.6739 H   0  0
   -3.8421  -20.6316   44.1524 H   0  0
   -5.2287  -20.1157   45.0937 H   0  0
   -5.4328  -21.4635   43.8983 H   0  0
   -5.4552  -23.5695   45.0276 H   0  0
   -4.9339  -25.6136   44.9101 H   0  0
   -6.4177  -25.0689   45.6851 H   0  0
   -5.8890  -26.7817   45.9017 H   0  0
  1  2  2  0  0  0
  1  3  1  0  0  0
  1  4  1  0  0  0
  3 31  1  0  0  0
  4  5  1  0  0  0
  4  9  1  0  0  0
  4 10  1  0  0  0
  5  6  1  0  0  0
  6  7  1  0  0  0
  7  8  1  0  0  0
  7 19  1  0  0  0
  8  9  1  0  0  0
 10 11  2  0  0  0
 10 15  1  0  0  0
 11 12  1  0  0  0
 11 16  1  0  0  0
 12 13  2  0  0  0
 13 14  1  0  0  0
 14 15  2  0  0  0
 16 17  1  0  0  0
 16 18  1  0  0  0
 19 20  2  0  0  0
 19 24  1  0  0  0
 20 21  1  0  0  0
 21 22  2  0  0  0
 22 23  1  0  0  0
 22 25  1  0  0  0
 23 24  2  0  0  0
 25 26  1  0  0  0
 25 27  1  0  0  0
 25 28  1  0  0  0
 26 27  1  0  0  0
 28 29  2  0  0  0
 28 30  1  0  0  0
 31 32  1  0  0  0
 31 37  2  0  0  0
 32 33  2  0  0  0
 33 34  1  0  0  0
 34 35  1  0  0  0
 34 36  2  0  0  0
 36 37  1  0  0  0
 37 38  1  0  0  0
 38 39  1  0  0  0
  3 40  1  0  0  0
  5 41  1  0  0  0
  5 42  1  0  0  0
  6 43  1  0  0  0
  6 44  1  0  0  0
  8 45  1  0  0  0
  8 46  1  0  0  0
  9 47  1  0  0  0
  9 48  1  0  0  0
 12 49  1  0  0  0
 13 50  1  0  0  0
 14 51  1  0  0  0
 15 52  1  0  0  0
 16 53  1  0  0  0
 17 54  1  0  0  0
 17 55  1  0  0  0
 17 56  1  0  0  0
 18 57  1  0  0  0
 18 58  1  0  0  0
 18 59  1  0  0  0
 20 60  1  0  0  0
 21 61  1  0  0  0
 23 62  1  0  0  0
 24 63  1  0  0  0
 26 64  1  0  0  0
 26 65  1  0  0  0
 27 66  1  0  0  0
 27 67  1  0  0  0
 30 68  1  0  0  0
 32 69  1  0  0  0
 33 70  1  0  0  0
 35 71  1  0  0  0
 35 72  1  0  0  0
 35 73  1  0  0  0
 36 74  1  0  0  0
 39 75  1  0  0  0
 39 76  1  0  0  0
 39 77  1  0  0  0
M  END
> <AbsoluteEnergy>
127.57

> <Clean Energy>
160.501

> <ConfNumber>
1

> <MODEL>
0

> <Molecule Solvent Accessibility>
0

> <MOL_NUMBER>
3

> <RelativeEnergy>
0

> <Score>
-7.558

> <POSE_NUMBER>
1

> <LibDockScore>
120.207

> <HotSpots>
2.27,-24.12,47.98,A,46,17
-3.53,-33.92,53.19,P,43,30
-3.53,-20.12,44.98,A,30,35

$$$$
